MODEL 1
REMARK VINA RESULT:      -9.2      0.000      0.000
REMARK  4 active torsions:
REMARK  status: ('A' for Active; 'I' for Inactive)
REMARK    1  A    between atoms: C3_3  and  N1_4 
REMARK    2  A    between atoms: N1_4  and  C4_5 
REMARK    3  A    between atoms: C7_8  and  C8_9 
REMARK    4  A    between atoms: C20_22  and  N3_23 
ROOT
ATOM      1  C1   11 d          -7.593 208.669 113.592  0.00  0.00    -0.019 A 
ATOM      2  C2   11 d          -8.791 208.709 114.300  0.00  0.00     0.073 A 
ATOM      3  C3   11 d         -10.157 208.665 113.658  0.00  0.00     0.238 C 
ATOM      4  C14  11 d         -10.013 208.964 112.138  0.00  0.00     0.040 C 
ATOM      5  C15  11 d          -8.871 208.161 111.481  0.00  0.00     0.007 C 
ATOM      6  C16  11 d          -7.500 208.503 112.099  0.00  0.00     0.042 C 
ATOM      7  N2   11 d          -8.547 208.820 115.627  0.00  0.00    -0.250 NA
ATOM      8  C17  11 d          -7.205 208.784 115.776  0.00  0.00     0.068 A 
ATOM      9  C18  11 d          -6.594 208.665 114.543  0.00  0.00     0.003 A 
ATOM     10  C19  11 d          -5.202 208.582 114.414  0.00  0.00     0.050 A 
ATOM     11  C20  11 d          -4.401 208.621 115.590  0.00  0.00     0.103 A 
ATOM     12  C21  11 d          -5.050 208.760 116.853  0.00  0.00     0.038 A 
ATOM     13  C22  11 d          -6.454 208.840 116.952  0.00  0.00     0.035 A 
ENDROOT
BRANCH   3  14
ATOM     14  N1   11 d         -10.779 207.338 114.002  0.00  0.00    -0.061 N 
ATOM     15  H2   11 d         -11.003 206.808 113.099  0.00  0.00     0.278 HD
ATOM     16  H3   11 d         -10.010 206.760 114.479  0.00  0.00     0.278 HD
BRANCH  14  17
ATOM     17  C4   11 d         -11.993 207.380 114.907  0.00  0.00     0.186 C 
ATOM     18  C5   11 d         -12.704 206.012 115.015  0.00  0.00     0.033 C 
ATOM     19  C6   11 d         -13.382 205.607 113.698  0.00  0.00     0.007 C 
ATOM     20  C7   11 d         -14.435 206.646 113.222  0.00  0.00    -0.007 C 
ATOM     21  C12  11 d         -13.803 208.065 113.196  0.00  0.00     0.007 C 
ATOM     22  C13  11 d         -13.053 208.429 114.488  0.00  0.00     0.033 C 
BRANCH  20  23
ATOM     23  C8   11 d         -15.195 206.246 111.895  0.00  0.00    -0.048 C 
ATOM     24  C9   11 d         -16.701 206.000 112.177  0.00  0.00     0.015 C 
ATOM     25  C10  11 d         -14.632 204.919 111.324  0.00  0.00     0.015 C 
ATOM     26  C11  11 d         -15.094 207.319 110.782  0.00  0.00     0.015 C 
ENDBRANCH  20  23
ENDBRANCH  14  17
ENDBRANCH   3  14
BRANCH  11  27
ATOM     27  N3   11 d          -3.010 208.535 115.512  0.00  0.00    -0.116 N 
ATOM     28  O1   11 d          -2.366 208.679 116.449  0.00  0.00    -0.532 OA
ATOM     29  O2   11 d          -2.428 208.517 114.392  0.00  0.00    -0.532 OA
ENDBRANCH  11  27
TORSDOF 4
ENDMDL
MODEL 2
REMARK VINA RESULT:      -9.0      4.235      8.916
REMARK  4 active torsions:
REMARK  status: ('A' for Active; 'I' for Inactive)
REMARK    1  A    between atoms: C3_3  and  N1_4 
REMARK    2  A    between atoms: N1_4  and  C4_5 
REMARK    3  A    between atoms: C7_8  and  C8_9 
REMARK    4  A    between atoms: C20_22  and  N3_23 
ROOT
ATOM      1  C1   11 d         -10.874 207.999 113.779  0.00  0.00    -0.019 A 
ATOM      2  C2   11 d          -9.653 208.604 113.492  0.00  0.00     0.073 A 
ATOM      3  C3   11 d          -8.687 209.102 114.540  0.00  0.00     0.238 C 
ATOM      4  C14  11 d          -9.424 209.194 115.906  0.00  0.00     0.040 C 
ATOM      5  C15  11 d         -10.253 207.930 116.220  0.00  0.00     0.007 C 
ATOM      6  C16  11 d         -11.360 207.697 115.171  0.00  0.00     0.042 C 
ATOM      7  N2   11 d          -9.482 208.700 112.152  0.00  0.00    -0.250 NA
ATOM      8  C17  11 d         -10.552 208.103 111.583  0.00  0.00     0.068 A 
ATOM      9  C18  11 d         -11.411 207.639 112.560  0.00  0.00     0.003 A 
ATOM     10  C19  11 d         -12.592 206.957 112.242  0.00  0.00     0.050 A 
ATOM     11  C20  11 d         -12.909 206.738 110.872  0.00  0.00     0.103 A 
ATOM     12  C21  11 d         -12.016 207.238 109.877  0.00  0.00     0.038 A 
ATOM     13  C22  11 d         -10.834 207.920 110.228  0.00  0.00     0.035 A 
ENDROOT
BRANCH   3  14
ATOM     14  N1   11 d          -7.481 208.201 114.511  0.00  0.00    -0.061 N 
ATOM     15  H2   11 d          -7.793 207.189 114.670  0.00  0.00     0.278 HD
ATOM     16  H3   11 d          -7.114 208.222 113.503  0.00  0.00     0.278 HD
BRANCH  14  17
ATOM     17  C4   11 d          -6.350 208.562 115.452  0.00  0.00     0.186 C 
ATOM     18  C5   11 d          -5.684 209.910 115.093  0.00  0.00     0.033 C 
ATOM     19  C6   11 d          -4.904 209.837 113.773  0.00  0.00     0.007 C 
ATOM     20  C7   11 d          -3.788 208.755 113.795  0.00  0.00    -0.007 C 
ATOM     21  C12  11 d          -4.381 207.394 114.253  0.00  0.00     0.007 C 
ATOM     22  C13  11 d          -5.232 207.492 115.530  0.00  0.00     0.033 C 
BRANCH  20  23
ATOM     23  C8   11 d          -2.926 208.679 112.473  0.00  0.00    -0.048 C 
ATOM     24  C9   11 d          -3.689 207.912 111.361  0.00  0.00     0.015 C 
ATOM     25  C10  11 d          -1.612 207.893 112.725  0.00  0.00     0.015 C 
ATOM     26  C11  11 d          -2.543 210.070 111.908  0.00  0.00     0.015 C 
ENDBRANCH  20  23
ENDBRANCH  14  17
ENDBRANCH   3  14
BRANCH  11  27
ATOM     27  N3   11 d         -14.071 206.057 110.505  0.00  0.00    -0.116 N 
ATOM     28  O1   11 d         -14.953 206.623 110.041  0.00  0.00    -0.532 OA
ATOM     29  O2   11 d         -14.261 204.864 110.872  0.00  0.00    -0.532 OA
ENDBRANCH  11  27
TORSDOF 4
ENDMDL
MODEL 3
REMARK VINA RESULT:      -9.0      4.188      8.996
REMARK  4 active torsions:
REMARK  status: ('A' for Active; 'I' for Inactive)
REMARK    1  A    between atoms: C3_3  and  N1_4 
REMARK    2  A    between atoms: N1_4  and  C4_5 
REMARK    3  A    between atoms: C7_8  and  C8_9 
REMARK    4  A    between atoms: C20_22  and  N3_23 
ROOT
ATOM      1  C1   11 d         -10.870 208.029 113.541  0.00  0.00    -0.019 A 
ATOM      2  C2   11 d          -9.631 208.563 113.198  0.00  0.00     0.073 A 
ATOM      3  C3   11 d          -8.616 209.059 114.199  0.00  0.00     0.238 C 
ATOM      4  C14  11 d          -9.311 209.243 115.578  0.00  0.00     0.040 C 
ATOM      5  C15  11 d         -10.189 208.035 115.967  0.00  0.00     0.007 C 
ATOM      6  C16  11 d         -11.332 207.809 114.956  0.00  0.00     0.042 C 
ATOM      7  N2   11 d          -9.491 208.594 111.851  0.00  0.00    -0.250 NA
ATOM      8  C17  11 d         -10.602 208.024 111.336  0.00  0.00     0.068 A 
ATOM      9  C18  11 d         -11.455 207.643 112.353  0.00  0.00     0.003 A 
ATOM     10  C19  11 d         -12.674 207.004 112.093  0.00  0.00     0.050 A 
ATOM     11  C20  11 d         -13.036 206.742 110.742  0.00  0.00     0.103 A 
ATOM     12  C21  11 d         -12.148 207.156 109.705  0.00  0.00     0.038 A 
ATOM     13  C22  11 d         -10.928 207.797 109.997  0.00  0.00     0.035 A 
ENDROOT
BRANCH   3  14
ATOM     14  N1   11 d          -7.453 208.102 114.181  0.00  0.00    -0.061 N 
ATOM     15  H2   11 d          -7.412 207.580 115.115  0.00  0.00     0.278 HD
ATOM     16  H3   11 d          -7.694 207.350 113.453  0.00  0.00     0.278 HD
BRANCH  14  17
ATOM     17  C4   11 d          -6.101 208.694 113.843  0.00  0.00     0.186 C 
ATOM     18  C5   11 d          -4.929 207.888 114.448  0.00  0.00     0.033 C 
ATOM     19  C6   11 d          -4.880 207.999 115.979  0.00  0.00     0.007 C 
ATOM     20  C7   11 d          -4.742 209.467 116.470  0.00  0.00    -0.007 C 
ATOM     21  C12  11 d          -5.835 210.351 115.808  0.00  0.00     0.007 C 
ATOM     22  C13  11 d          -5.934 210.170 114.284  0.00  0.00     0.033 C 
BRANCH  20  23
ATOM     23  C8   11 d          -4.637 209.624 118.039  0.00  0.00    -0.048 C 
ATOM     24  C9   11 d          -3.156 209.748 118.482  0.00  0.00     0.015 C 
ATOM     25  C10  11 d          -5.205 208.370 118.751  0.00  0.00     0.015 C 
ATOM     26  C11  11 d          -5.396 210.861 118.584  0.00  0.00     0.015 C 
ENDBRANCH  20  23
ENDBRANCH  14  17
ENDBRANCH   3  14
BRANCH  11  27
ATOM     27  N3   11 d         -14.238 206.101 110.434  0.00  0.00    -0.116 N 
ATOM     28  O1   11 d         -15.123 206.698 110.017  0.00  0.00    -0.532 OA
ATOM     29  O2   11 d         -14.448 204.913 110.807  0.00  0.00    -0.532 OA
ENDBRANCH  11  27
TORSDOF 4
ENDMDL
MODEL 4
REMARK VINA RESULT:      -8.9      5.995      9.015
REMARK  4 active torsions:
REMARK  status: ('A' for Active; 'I' for Inactive)
REMARK    1  A    between atoms: C3_3  and  N1_4 
REMARK    2  A    between atoms: N1_4  and  C4_5 
REMARK    3  A    between atoms: C7_8  and  C8_9 
REMARK    4  A    between atoms: C20_22  and  N3_23 
ROOT
ATOM      1  C1   11 d         -13.402 205.967 114.735  0.00  0.00    -0.019 A 
ATOM      2  C2   11 d         -14.321 205.578 115.706  0.00  0.00     0.073 A 
ATOM      3  C3   11 d         -13.959 205.276 117.141  0.00  0.00     0.238 C 
ATOM      4  C14  11 d         -12.420 205.086 117.247  0.00  0.00     0.040 C 
ATOM      5  C15  11 d         -11.633 206.193 116.514  0.00  0.00     0.007 C 
ATOM      6  C16  11 d         -11.942 206.209 115.003  0.00  0.00     0.042 C 
ATOM      7  N2   11 d         -15.560 205.485 115.169  0.00  0.00    -0.250 NA
ATOM      8  C17  11 d         -15.451 205.876 113.880  0.00  0.00     0.068 A 
ATOM      9  C18  11 d         -14.140 206.204 113.593  0.00  0.00     0.003 A 
ATOM     10  C19  11 d         -13.755 206.665 112.328  0.00  0.00     0.050 A 
ATOM     11  C20  11 d         -14.746 206.797 111.316  0.00  0.00     0.103 A 
ATOM     12  C21  11 d         -16.091 206.440 111.627  0.00  0.00     0.038 A 
ATOM     13  C22  11 d         -16.450 205.980 112.910  0.00  0.00     0.035 A 
ENDROOT
BRANCH   3  14
ATOM     14  N1   11 d         -14.540 206.372 117.996  0.00  0.00    -0.061 N 
ATOM     15  H2   11 d         -14.335 207.319 117.541  0.00  0.00     0.278 HD
ATOM     16  H3   11 d         -15.606 206.262 117.942  0.00  0.00     0.278 HD
BRANCH  14  17
ATOM     17  C4   11 d         -14.121 206.380 119.452  0.00  0.00     0.186 C 
ATOM     18  C5   11 d         -14.159 204.974 120.091  0.00  0.00     0.033 C 
ATOM     19  C6   11 d         -15.593 204.446 120.242  0.00  0.00     0.007 C 
ATOM     20  C7   11 d         -16.488 205.377 121.105  0.00  0.00    -0.007 C 
ATOM     21  C12  11 d         -16.406 206.834 120.571  0.00  0.00     0.007 C 
ATOM     22  C13  11 d         -14.966 207.325 120.342  0.00  0.00     0.033 C 
BRANCH  20  23
ATOM     23  C8   11 d         -17.960 204.847 121.329  0.00  0.00    -0.048 C 
ATOM     24  C9   11 d         -18.218 204.559 122.831  0.00  0.00     0.015 C 
ATOM     25  C10  11 d         -18.175 203.505 120.581  0.00  0.00     0.015 C 
ATOM     26  C11  11 d         -19.049 205.837 120.846  0.00  0.00     0.015 C 
ENDBRANCH  20  23
ENDBRANCH  14  17
ENDBRANCH   3  14
BRANCH  11  27
ATOM     27  N3   11 d         -14.411 207.259 110.041  0.00  0.00    -0.116 N 
ATOM     28  O1   11 d         -15.222 207.405 109.246  0.00  0.00    -0.532 OA
ATOM     29  O2   11 d         -13.204 207.314 109.674  0.00  0.00    -0.532 OA
ENDBRANCH  11  27
TORSDOF 4
ENDMDL
MODEL 5
REMARK VINA RESULT:      -8.7      7.221      9.779
REMARK  4 active torsions:
REMARK  status: ('A' for Active; 'I' for Inactive)
REMARK    1  A    between atoms: C3_3  and  N1_4 
REMARK    2  A    between atoms: N1_4  and  C4_5 
REMARK    3  A    between atoms: C7_8  and  C8_9 
REMARK    4  A    between atoms: C20_22  and  N3_23 
ROOT
ATOM      1  C1   11 d         -15.407 203.903 119.629  0.00  0.00    -0.019 A 
ATOM      2  C2   11 d         -14.518 204.756 118.980  0.00  0.00     0.073 A 
ATOM      3  C3   11 d         -14.136 204.633 117.524  0.00  0.00     0.238 C 
ATOM      4  C14  11 d         -14.560 203.229 117.006  0.00  0.00     0.040 C 
ATOM      5  C15  11 d         -16.000 202.855 117.416  0.00  0.00     0.007 C 
ATOM      6  C16  11 d         -16.160 202.792 118.949  0.00  0.00     0.042 C 
ATOM      7  N2   11 d         -14.036 205.678 119.847  0.00  0.00    -0.250 NA
ATOM      8  C17  11 d         -14.660 205.462 121.025  0.00  0.00     0.068 A 
ATOM      9  C18  11 d         -15.528 204.393 120.913  0.00  0.00     0.003 A 
ATOM     10  C19  11 d         -16.321 203.970 121.988  0.00  0.00     0.050 A 
ATOM     11  C20  11 d         -16.225 204.666 123.225  0.00  0.00     0.103 A 
ATOM     12  C21  11 d         -15.312 205.757 123.325  0.00  0.00     0.038 A 
ATOM     13  C22  11 d         -14.527 206.161 122.226  0.00  0.00     0.035 A 
ENDROOT
BRANCH   3  14
ATOM     14  N1   11 d         -14.739 205.805 116.795  0.00  0.00    -0.061 N 
ATOM     15  H2   11 d         -15.493 205.451 116.123  0.00  0.00     0.278 HD
ATOM     16  H3   11 d         -15.271 206.375 117.533  0.00  0.00     0.278 HD
BRANCH  14  17
ATOM     17  C4   11 d         -13.770 206.718 116.074  0.00  0.00     0.186 C 
ATOM     18  C5   11 d         -14.477 207.888 115.354  0.00  0.00     0.033 C 
ATOM     19  C6   11 d         -15.315 207.411 114.159  0.00  0.00     0.007 C 
ATOM     20  C7   11 d         -14.469 206.651 113.099  0.00  0.00    -0.007 C 
ATOM     21  C12  11 d         -13.650 205.524 113.786  0.00  0.00     0.007 C 
ATOM     22  C13  11 d         -12.881 205.993 115.032  0.00  0.00     0.033 C 
BRANCH  20  23
ATOM     23  C8   11 d         -15.281 206.185 111.826  0.00  0.00    -0.048 C 
ATOM     24  C9   11 d         -14.643 204.917 111.201  0.00  0.00     0.015 C 
ATOM     25  C10  11 d         -15.249 207.279 110.728  0.00  0.00     0.015 C 
ATOM     26  C11  11 d         -16.766 205.864 112.129  0.00  0.00     0.015 C 
ENDBRANCH  20  23
ENDBRANCH  14  17
ENDBRANCH   3  14
BRANCH  11  27
ATOM     27  N3   11 d         -17.000 204.285 124.323  0.00  0.00    -0.116 N 
ATOM     28  O1   11 d         -16.509 203.813 125.244  0.00  0.00    -0.532 OA
ATOM     29  O2   11 d         -18.259 204.250 124.239  0.00  0.00    -0.532 OA
ENDBRANCH  11  27
TORSDOF 4
ENDMDL
MODEL 6
REMARK VINA RESULT:      -8.3      4.045      8.309
REMARK  4 active torsions:
REMARK  status: ('A' for Active; 'I' for Inactive)
REMARK    1  A    between atoms: C3_3  and  N1_4 
REMARK    2  A    between atoms: N1_4  and  C4_5 
REMARK    3  A    between atoms: C7_8  and  C8_9 
REMARK    4  A    between atoms: C20_22  and  N3_23 
ROOT
ATOM      1  C1   11 d         -11.272 207.696 115.168  0.00  0.00    -0.019 A 
ATOM      2  C2   11 d         -10.026 208.304 115.297  0.00  0.00     0.073 A 
ATOM      3  C3   11 d          -9.372 208.624 116.619  0.00  0.00     0.238 C 
ATOM      4  C14  11 d         -10.440 208.540 117.747  0.00  0.00     0.040 C 
ATOM      5  C15  11 d         -11.306 207.266 117.651  0.00  0.00     0.007 C 
ATOM      6  C16  11 d         -12.099 207.212 116.328  0.00  0.00     0.042 C 
ATOM      7  N2   11 d          -9.514 208.585 114.075  0.00  0.00    -0.250 NA
ATOM      8  C17  11 d         -10.392 208.101 113.169  0.00  0.00     0.068 A 
ATOM      9  C18  11 d         -11.470 207.527 113.813  0.00  0.00     0.003 A 
ATOM     10  C19  11 d         -12.519 206.927 113.105  0.00  0.00     0.050 A 
ATOM     11  C20  11 d         -12.465 206.912 111.683  0.00  0.00     0.103 A 
ATOM     12  C21  11 d         -11.351 207.524 111.036  0.00  0.00     0.038 A 
ATOM     13  C22  11 d         -10.310 208.120 111.775  0.00  0.00     0.035 A 
ENDROOT
BRANCH   3  14
ATOM     14  N1   11 d          -8.188 207.705 116.775  0.00  0.00    -0.061 N 
ATOM     15  H2   11 d          -8.475 206.859 117.365  0.00  0.00     0.278 HD
ATOM     16  H3   11 d          -7.987 207.307 115.799  0.00  0.00     0.278 HD
BRANCH  14  17
ATOM     17  C4   11 d          -6.921 208.329 117.321  0.00  0.00     0.186 C 
ATOM     18  C5   11 d          -6.587 209.681 116.651  0.00  0.00     0.033 C 
ATOM     19  C6   11 d          -6.175 209.513 115.181  0.00  0.00     0.007 C 
ATOM     20  C7   11 d          -4.941 208.586 115.006  0.00  0.00    -0.007 C 
ATOM     21  C12  11 d          -5.177 207.244 115.752  0.00  0.00     0.007 C 
ATOM     22  C13  11 d          -5.671 207.422 117.198  0.00  0.00     0.033 C 
BRANCH  20  23
ATOM     23  C8   11 d          -4.451 208.424 113.513  0.00  0.00    -0.048 C 
ATOM     24  C9   11 d          -3.513 207.197 113.371  0.00  0.00     0.015 C 
ATOM     25  C10  11 d          -3.624 209.661 113.074  0.00  0.00     0.015 C 
ATOM     26  C11  11 d          -5.611 208.249 112.501  0.00  0.00     0.015 C 
ENDBRANCH  20  23
ENDBRANCH  14  17
ENDBRANCH   3  14
BRANCH  11  27
ATOM     27  N3   11 d         -13.484 206.320 110.934  0.00  0.00    -0.116 N 
ATOM     28  O1   11 d         -13.867 205.273 111.202  0.00  0.00    -0.532 OA
ATOM     29  O2   11 d         -13.848 206.820 109.833  0.00  0.00    -0.532 OA
ENDBRANCH  11  27
TORSDOF 4
ENDMDL
MODEL 7
REMARK VINA RESULT:      -8.0      3.134      4.757
REMARK  4 active torsions:
REMARK  status: ('A' for Active; 'I' for Inactive)
REMARK    1  A    between atoms: C3_3  and  N1_4 
REMARK    2  A    between atoms: N1_4  and  C4_5 
REMARK    3  A    between atoms: C7_8  and  C8_9 
REMARK    4  A    between atoms: C20_22  and  N3_23 
ROOT
ATOM      1  C1   11 d          -4.686 206.845 115.908  0.00  0.00    -0.019 A 
ATOM      2  C2   11 d          -5.663 207.831 115.794  0.00  0.00     0.073 A 
ATOM      3  C3   11 d          -5.793 208.763 114.613  0.00  0.00     0.238 C 
ATOM      4  C14  11 d          -4.480 208.714 113.781  0.00  0.00     0.040 C 
ATOM      5  C15  11 d          -3.994 207.272 113.523  0.00  0.00     0.007 C 
ATOM      6  C16  11 d          -3.676 206.531 114.838  0.00  0.00     0.042 C 
ATOM      7  N2   11 d          -6.447 207.843 116.899  0.00  0.00    -0.250 NA
ATOM      8  C17  11 d          -6.019 206.831 117.685  0.00  0.00     0.068 A 
ATOM      9  C18  11 d          -4.955 206.184 117.089  0.00  0.00     0.003 A 
ATOM     10  C19  11 d          -4.335 205.079 117.685  0.00  0.00     0.050 A 
ATOM     11  C20  11 d          -4.821 204.614 118.939  0.00  0.00     0.103 A 
ATOM     12  C21  11 d          -5.912 205.305 119.546  0.00  0.00     0.038 A 
ATOM     13  C22  11 d          -6.516 206.415 118.921  0.00  0.00     0.035 A 
ENDROOT
BRANCH   3  14
ATOM     14  N1   11 d          -7.047 208.384 113.871  0.00  0.00    -0.061 N 
ATOM     15  H2   11 d          -6.783 207.844 112.984  0.00  0.00     0.278 HD
ATOM     16  H3   11 d          -7.557 207.669 114.488  0.00  0.00     0.278 HD
BRANCH  14  17
ATOM     17  C4   11 d          -8.000 209.514 113.540  0.00  0.00     0.186 C 
ATOM     18  C5   11 d          -9.144 209.650 114.570  0.00  0.00     0.033 C 
ATOM     19  C6   11 d         -10.121 208.467 114.509  0.00  0.00     0.007 C 
ATOM     20  C7   11 d         -10.771 208.298 113.108  0.00  0.00    -0.007 C 
ATOM     21  C12  11 d          -9.667 208.261 112.014  0.00  0.00     0.007 C 
ATOM     22  C13  11 d          -8.643 209.402 112.135  0.00  0.00     0.033 C 
BRANCH  20  23
ATOM     23  C8   11 d         -11.823 207.123 113.012  0.00  0.00    -0.048 C 
ATOM     24  C9   11 d         -13.249 207.632 113.348  0.00  0.00     0.015 C 
ATOM     25  C10  11 d         -11.497 206.015 114.048  0.00  0.00     0.015 C 
ATOM     26  C11  11 d         -11.877 206.460 111.613  0.00  0.00     0.015 C 
ENDBRANCH  20  23
ENDBRANCH  14  17
ENDBRANCH   3  14
BRANCH  11  27
ATOM     27  N3   11 d          -4.240 203.512 119.568  0.00  0.00    -0.116 N 
ATOM     28  O1   11 d          -3.299 203.024 119.133  0.00  0.00    -0.532 OA
ATOM     29  O2   11 d          -4.851 202.901 120.489  0.00  0.00    -0.532 OA
ENDBRANCH  11  27
TORSDOF 4
ENDMDL
MODEL 8
REMARK VINA RESULT:      -7.9      2.280      2.835
REMARK  4 active torsions:
REMARK  status: ('A' for Active; 'I' for Inactive)
REMARK    1  A    between atoms: C3_3  and  N1_4 
REMARK    2  A    between atoms: N1_4  and  C4_5 
REMARK    3  A    between atoms: C7_8  and  C8_9 
REMARK    4  A    between atoms: C20_22  and  N3_23 
ROOT
ATOM      1  C1   11 d          -8.148 208.537 115.937  0.00  0.00    -0.019 A 
ATOM      2  C2   11 d          -9.529 208.711 115.884  0.00  0.00     0.073 A 
ATOM      3  C3   11 d         -10.283 209.124 114.643  0.00  0.00     0.238 C 
ATOM      4  C14  11 d          -9.275 209.688 113.601  0.00  0.00     0.040 C 
ATOM      5  C15  11 d          -8.030 208.791 113.434  0.00  0.00     0.007 C 
ATOM      6  C16  11 d          -7.234 208.666 114.749  0.00  0.00     0.042 C 
ATOM      7  N2   11 d         -10.077 208.486 117.101  0.00  0.00    -0.250 NA
ATOM      8  C17  11 d          -9.067 208.105 117.914  0.00  0.00     0.068 A 
ATOM      9  C18  11 d          -7.874 208.102 117.218  0.00  0.00     0.003 A 
ATOM     10  C19  11 d          -6.669 207.722 117.821  0.00  0.00     0.050 A 
ATOM     11  C20  11 d          -6.681 207.328 119.188  0.00  0.00     0.103 A 
ATOM     12  C21  11 d          -7.920 207.352 119.894  0.00  0.00     0.038 A 
ATOM     13  C22  11 d          -9.118 207.738 119.260  0.00  0.00     0.035 A 
ENDROOT
BRANCH   3  14
ATOM     14  N1   11 d         -11.093 207.939 114.188  0.00  0.00    -0.061 N 
ATOM     15  H2   11 d         -11.371 208.075 113.162  0.00  0.00     0.278 HD
ATOM     16  H3   11 d         -10.423 207.101 114.185  0.00  0.00     0.278 HD
BRANCH  14  17
ATOM     17  C4   11 d         -12.307 207.594 115.026  0.00  0.00     0.186 C 
ATOM     18  C5   11 d         -12.696 206.102 114.924  0.00  0.00     0.033 C 
ATOM     19  C6   11 d         -13.236 205.738 113.532  0.00  0.00     0.007 C 
ATOM     20  C7   11 d         -14.482 206.576 113.135  0.00  0.00    -0.007 C 
ATOM     21  C12  11 d         -14.183 208.089 113.320  0.00  0.00     0.007 C 
ATOM     22  C13  11 d         -13.564 208.433 114.685  0.00  0.00     0.033 C 
BRANCH  20  23
ATOM     23  C8   11 d         -15.102 206.200 111.731  0.00  0.00    -0.048 C 
ATOM     24  C9   11 d         -16.650 206.132 111.813  0.00  0.00     0.015 C 
ATOM     25  C10  11 d         -14.624 204.795 111.283  0.00  0.00     0.015 C 
ATOM     26  C11  11 d         -14.734 207.204 110.609  0.00  0.00     0.015 C 
ENDBRANCH  20  23
ENDBRANCH  14  17
ENDBRANCH   3  14
BRANCH  11  27
ATOM     27  N3   11 d          -5.505 206.934 119.831  0.00  0.00    -0.116 N 
ATOM     28  O1   11 d          -5.159 205.843 119.790  0.00  0.00    -0.532 OA
ATOM     29  O2   11 d          -4.924 207.709 120.641  0.00  0.00    -0.532 OA
ENDBRANCH  11  27
TORSDOF 4
ENDMDL
MODEL 9
REMARK VINA RESULT:      -7.8      4.678      8.892
REMARK  4 active torsions:
REMARK  status: ('A' for Active; 'I' for Inactive)
REMARK    1  A    between atoms: C3_3  and  N1_4 
REMARK    2  A    between atoms: N1_4  and  C4_5 
REMARK    3  A    between atoms: C7_8  and  C8_9 
REMARK    4  A    between atoms: C20_22  and  N3_23 
ROOT
ATOM      1  C1   11 d         -11.883 207.335 115.422  0.00  0.00    -0.019 A 
ATOM      2  C2   11 d         -10.667 208.004 115.529  0.00  0.00     0.073 A 
ATOM      3  C3   11 d         -10.041 208.420 116.839  0.00  0.00     0.238 C 
ATOM      4  C14  11 d         -11.116 208.345 117.961  0.00  0.00     0.040 C 
ATOM      5  C15  11 d         -11.923 207.030 117.923  0.00  0.00     0.007 C 
ATOM      6  C16  11 d         -12.700 206.873 116.599  0.00  0.00     0.042 C 
ATOM      7  N2   11 d         -10.155 208.245 114.299  0.00  0.00    -0.250 NA
ATOM      8  C17  11 d         -11.001 207.677 113.412  0.00  0.00     0.068 A 
ATOM      9  C18  11 d         -12.059 207.088 114.076  0.00  0.00     0.003 A 
ATOM     10  C19  11 d         -13.073 206.406 113.391  0.00  0.00     0.050 A 
ATOM     11  C20  11 d         -13.004 206.322 111.972  0.00  0.00     0.103 A 
ATOM     12  C21  11 d         -11.912 206.950 111.304  0.00  0.00     0.038 A 
ATOM     13  C22  11 d         -10.906 207.629 112.020  0.00  0.00     0.035 A 
ENDROOT
BRANCH   3  14
ATOM     14  N1   11 d          -8.820 207.565 117.051  0.00  0.00    -0.061 N 
ATOM     15  H2   11 d          -9.083 206.716 117.648  0.00  0.00     0.278 HD
ATOM     16  H3   11 d          -8.567 207.159 116.090  0.00  0.00     0.278 HD
BRANCH  14  17
ATOM     17  C4   11 d          -7.603 208.261 117.625  0.00  0.00     0.186 C 
ATOM     18  C5   11 d          -6.290 207.496 117.343  0.00  0.00     0.033 C 
ATOM     19  C6   11 d          -6.215 206.173 118.119  0.00  0.00     0.007 C 
ATOM     20  C7   11 d          -6.321 206.371 119.656  0.00  0.00    -0.007 C 
ATOM     21  C12  11 d          -7.572 207.228 119.993  0.00  0.00     0.007 C 
ATOM     22  C13  11 d          -7.685 208.511 119.151  0.00  0.00     0.033 C 
BRANCH  20  23
ATOM     23  C8   11 d          -6.198 205.039 120.497  0.00  0.00    -0.048 C 
ATOM     24  C9   11 d          -6.053 203.809 119.563  0.00  0.00     0.015 C 
ATOM     25  C10  11 d          -7.480 204.804 121.336  0.00  0.00     0.015 C 
ATOM     26  C11  11 d          -4.990 205.036 121.469  0.00  0.00     0.015 C 
ENDBRANCH  20  23
ENDBRANCH  14  17
ENDBRANCH   3  14
BRANCH  11  27
ATOM     27  N3   11 d         -13.988 205.647 111.246  0.00  0.00    -0.116 N 
ATOM     28  O1   11 d         -14.414 206.102 110.285  0.00  0.00    -0.532 OA
ATOM     29  O2   11 d         -14.577 204.645 111.739  0.00  0.00    -0.532 OA
ENDBRANCH  11  27
TORSDOF 4
ENDMDL
MODEL 10
REMARK VINA RESULT:      -7.5      4.263      8.716
REMARK  4 active torsions:
REMARK  status: ('A' for Active; 'I' for Inactive)
REMARK    1  A    between atoms: C3_3  and  N1_4 
REMARK    2  A    between atoms: N1_4  and  C4_5 
REMARK    3  A    between atoms: C7_8  and  C8_9 
REMARK    4  A    between atoms: C20_22  and  N3_23 
ROOT
ATOM      1  C1   11 d         -11.044 206.972 117.467  0.00  0.00    -0.019 A 
ATOM      2  C2   11 d          -9.906 207.723 117.182  0.00  0.00     0.073 A 
ATOM      3  C3   11 d          -8.769 207.941 118.151  0.00  0.00     0.238 C 
ATOM      4  C14  11 d          -9.240 207.549 119.581  0.00  0.00     0.040 C 
ATOM      5  C15  11 d          -9.977 206.194 119.613  0.00  0.00     0.007 C 
ATOM      6  C16  11 d         -11.257 206.218 118.751  0.00  0.00     0.042 C 
ATOM      7  N2   11 d          -9.989 208.244 115.934  0.00  0.00    -0.250 NA
ATOM      8  C17  11 d         -11.138 207.776 115.398  0.00  0.00     0.068 A 
ATOM      9  C18  11 d         -11.793 206.971 116.309  0.00  0.00     0.003 A 
ATOM     10  C19  11 d         -13.003 206.337 115.997  0.00  0.00     0.050 A 
ATOM     11  C20  11 d         -13.566 206.532 114.705  0.00  0.00     0.103 A 
ATOM     12  C21  11 d         -12.881 207.380 113.784  0.00  0.00     0.038 A 
ATOM     13  C22  11 d         -11.665 208.003 114.125  0.00  0.00     0.035 A 
ENDROOT
BRANCH   3  14
ATOM     14  N1   11 d          -7.576 207.183 117.629  0.00  0.00    -0.061 N 
ATOM     15  H2   11 d          -7.643 206.162 117.944  0.00  0.00     0.278 HD
ATOM     16  H3   11 d          -7.684 207.152 116.562  0.00  0.00     0.278 HD
BRANCH  14  17
ATOM     17  C4   11 d          -6.216 207.756 117.969  0.00  0.00     0.186 C 
ATOM     18  C5   11 d          -6.062 209.228 117.523  0.00  0.00     0.033 C 
ATOM     19  C6   11 d          -6.024 209.369 115.994  0.00  0.00     0.007 C 
ATOM     20  C7   11 d          -4.866 208.560 115.346  0.00  0.00    -0.007 C 
ATOM     21  C12  11 d          -4.907 207.088 115.843  0.00  0.00     0.007 C 
ATOM     22  C13  11 d          -5.032 206.957 117.370  0.00  0.00     0.033 C 
BRANCH  20  23
ATOM     23  C8   11 d          -4.758 208.716 113.778  0.00  0.00    -0.048 C 
ATOM     24  C9   11 d          -3.786 207.661 113.186  0.00  0.00     0.015 C 
ATOM     25  C10  11 d          -4.176 210.105 113.407  0.00  0.00     0.015 C 
ATOM     26  C11  11 d          -6.117 208.564 113.050  0.00  0.00     0.015 C 
ENDBRANCH  20  23
ENDBRANCH  14  17
ENDBRANCH   3  14
BRANCH  11  27
ATOM     27  N3   11 d         -14.766 205.916 114.347  0.00  0.00    -0.116 N 
ATOM     28  O1   11 d         -15.461 205.487 115.151  0.00  0.00    -0.532 OA
ATOM     29  O2   11 d         -15.006 205.626 113.141  0.00  0.00    -0.532 OA
ENDBRANCH  11  27
TORSDOF 4
ENDMDL
