MODEL 1
REMARK VINA RESULT:      -9.6      0.000      0.000
REMARK  6 active torsions:
REMARK  status: ('A' for Active; 'I' for Inactive)
REMARK    1  A    between atoms: C3_3  and  C4_4 
REMARK    2  A    between atoms: C3_3  and  O1_17 
REMARK    3  A    between atoms: C11_11  and  S1_26 
REMARK    4  A    between atoms: N1_14  and  S1_26 
REMARK    5  A    between atoms: C14_16  and  O1_17 
REMARK    6  A    between atoms: N6_23  and  C17_24 
ROOT
ATOM      1  C1  <1> d           3.801  42.804  52.421  0.00  0.00     0.225 A 
ATOM      2  C2  <1> d           4.003  45.712  55.774  0.00  0.00     0.199 A 
ATOM      3  N2  <1> d           4.555  43.817  51.718  0.00  0.00    -0.177 NA
ATOM      4  C14 <1> d           4.881  44.901  52.388  0.00  0.00     0.248 A 
ATOM      5  C15 <1> d           4.444  45.135  53.727  0.00  0.00     0.169 A 
ATOM      6  N3  <1> d           4.657  46.130  54.723  0.00  0.00    -0.229 NA
ATOM      7  N4  <1> d           3.428  44.529  55.575  0.00  0.00    -0.329 N 
ATOM      8  C16 <1> d           3.735  44.201  54.347  0.00  0.00     0.167 A 
ATOM      9  N5  <1> d           3.395  43.061  53.600  0.00  0.00    -0.195 NA
ATOM     10  N6  <1> d           3.417  41.728  51.787  0.00  0.00    -0.283 N 
ATOM     11  H20 <1> d           2.879  44.004  56.225  0.00  0.00     0.168 HD
ATOM     12  H21 <1> d           3.106  40.946  52.327  0.00  0.00     0.155 HD
ENDROOT
BRANCH  10  13
ATOM     13  C17 <1> d           3.418  41.614  50.414  0.00  0.00     0.034 A 
ATOM     14  C13 <1> d           2.344  41.716  49.527  0.00  0.00     0.025 A 
ATOM     15  C12 <1> d           2.433  41.569  48.164  0.00  0.00     0.030 A 
ATOM     16  C11 <1> d           3.711  41.229  47.585  0.00  0.00     0.105 A 
ATOM     17  C10 <1> d           4.775  41.070  48.438  0.00  0.00     0.030 A 
ATOM     18  C18 <1> d           4.641  41.270  49.797  0.00  0.00     0.025 A 
BRANCH  16  19
ATOM     19  S1  <1> d           3.889  40.922  45.879  0.00  0.00     0.056 S 
ATOM     20  O2  <1> d           5.271  41.218  45.529  0.00  0.00    -0.153 OA
ATOM     21  O3  <1> d           2.872  41.591  45.077  0.00  0.00    -0.153 OA
BRANCH  19  22
ATOM     22  N1  <1> d           3.670  39.373  45.630  0.00  0.00    -0.203 NA
ATOM     23  H18 <1> d           3.811  38.874  46.485  0.00  0.00     0.144 HD
ATOM     24  H19 <1> d           4.322  39.049  44.944  0.00  0.00     0.144 HD
ENDBRANCH  19  22
ENDBRANCH  16  19
ENDBRANCH  10  13
BRANCH   4  25
ATOM     25  O1  <1> d           5.653  45.852  51.879  0.00  0.00    -0.474 OA
BRANCH  25  26
ATOM     26  C3  <1> d           7.038  45.342  52.038  0.00  0.00     0.234 C 
BRANCH  26  27
ATOM     27  C4  <1> d           7.881  46.455  52.728  0.00  0.00     0.027 C 
ATOM     28  C5  <1> d           8.669  46.023  53.997  0.00  0.00     0.007 C 
ATOM     29  C6  <1> d           9.549  47.087  54.644  0.00  0.00     0.000 C 
ATOM     30  C7  <1> d           8.694  48.404  54.989  0.00  0.00     0.000 C 
ATOM     31  C8  <1> d           7.981  48.829  53.710  0.00  0.00     0.000 C 
ATOM     32  C9  <1> d           7.084  47.744  53.013  0.00  0.00     0.007 C 
ENDBRANCH  26  27
ENDBRANCH  25  26
ENDBRANCH   4  25
TORSDOF 6
ENDMDL
MODEL 2
REMARK VINA RESULT:      -8.9      2.888      4.363
REMARK  6 active torsions:
REMARK  status: ('A' for Active; 'I' for Inactive)
REMARK    1  A    between atoms: C3_3  and  C4_4 
REMARK    2  A    between atoms: C3_3  and  O1_17 
REMARK    3  A    between atoms: C11_11  and  S1_26 
REMARK    4  A    between atoms: N1_14  and  S1_26 
REMARK    5  A    between atoms: C14_16  and  O1_17 
REMARK    6  A    between atoms: N6_23  and  C17_24 
ROOT
ATOM      1  C1  <1> d           2.087  46.262  55.357  0.00  0.00     0.225 A 
ATOM      2  C2  <1> d           2.077  50.414  56.940  0.00  0.00     0.199 A 
ATOM      3  N2  <1> d           3.373  46.648  54.822  0.00  0.00    -0.177 NA
ATOM      4  C14 <1> d           3.801  47.861  55.095  0.00  0.00     0.248 A 
ATOM      5  C15 <1> d           3.011  48.810  55.811  0.00  0.00     0.169 A 
ATOM      6  N3  <1> d           3.186  50.132  56.310  0.00  0.00    -0.229 NA
ATOM      7  N4  <1> d           1.222  49.395  56.939  0.00  0.00    -0.329 N 
ATOM      8  C16 <1> d           1.824  48.442  56.276  0.00  0.00     0.167 A 
ATOM      9  N5  <1> d           1.392  47.144  55.958  0.00  0.00    -0.195 NA
ATOM     10  N6  <1> d           1.598  45.082  55.079  0.00  0.00    -0.283 N 
ATOM     11  H20 <1> d           0.313  49.365  57.354  0.00  0.00     0.168 HD
ATOM     12  H21 <1> d           0.835  44.744  55.630  0.00  0.00     0.155 HD
ENDROOT
BRANCH  10  13
ATOM     13  C17 <1> d           2.079  44.281  54.067  0.00  0.00     0.034 A 
ATOM     14  C13 <1> d           3.328  43.665  53.957  0.00  0.00     0.025 A 
ATOM     15  C12 <1> d           3.734  42.893  52.896  0.00  0.00     0.030 A 
ATOM     16  C11 <1> d           2.841  42.734  51.772  0.00  0.00     0.105 A 
ATOM     17  C10 <1> d           1.627  43.372  51.828  0.00  0.00     0.030 A 
ATOM     18  C18 <1> d           1.251  44.103  52.937  0.00  0.00     0.025 A 
BRANCH  16  19
ATOM     19  S1  <1> d           3.318  41.860  50.343  0.00  0.00     0.056 S 
ATOM     20  O2  <1> d           4.714  42.180  50.086  0.00  0.00    -0.153 OA
ATOM     21  O3  <1> d           2.402  42.064  49.225  0.00  0.00    -0.153 OA
BRANCH  19  22
ATOM     22  N1  <1> d           3.250  40.310  50.665  0.00  0.00    -0.203 NA
ATOM     23  H18 <1> d           3.160  39.796  49.812  0.00  0.00     0.144 HD
ATOM     24  H19 <1> d           2.460  40.125  51.250  0.00  0.00     0.144 HD
ENDBRANCH  19  22
ENDBRANCH  16  19
ENDBRANCH  10  13
BRANCH   4  25
ATOM     25  O1  <1> d           5.005  48.292  54.742  0.00  0.00    -0.474 OA
BRANCH  25  26
ATOM     26  C3  <1> d           5.926  47.721  55.757  0.00  0.00     0.234 C 
BRANCH  26  27
ATOM     27  C4  <1> d           7.119  47.065  55.004  0.00  0.00     0.027 C 
ATOM     28  C5  <1> d           8.508  47.729  55.219  0.00  0.00     0.007 C 
ATOM     29  C6  <1> d           9.696  47.056  54.540  0.00  0.00     0.000 C 
ATOM     30  C7  <1> d           9.436  46.899  52.960  0.00  0.00     0.000 C 
ATOM     31  C8  <1> d           8.095  46.195  52.789  0.00  0.00     0.000 C 
ATOM     32  C9  <1> d           6.860  46.858  53.498  0.00  0.00     0.007 C 
ENDBRANCH  26  27
ENDBRANCH  25  26
ENDBRANCH   4  25
TORSDOF 6
ENDMDL
MODEL 3
REMARK VINA RESULT:      -8.7      4.185      7.252
REMARK  6 active torsions:
REMARK  status: ('A' for Active; 'I' for Inactive)
REMARK    1  A    between atoms: C3_3  and  C4_4 
REMARK    2  A    between atoms: C3_3  and  O1_17 
REMARK    3  A    between atoms: C11_11  and  S1_26 
REMARK    4  A    between atoms: N1_14  and  S1_26 
REMARK    5  A    between atoms: C14_16  and  O1_17 
REMARK    6  A    between atoms: N6_23  and  C17_24 
ROOT
ATOM      1  C1  <1> d           2.382  43.685  52.582  0.00  0.00     0.225 A 
ATOM      2  C2  <1> d           5.874  42.154  50.301  0.00  0.00     0.199 A 
ATOM      3  N2  <1> d           3.195  44.874  52.703  0.00  0.00    -0.177 NA
ATOM      4  C14 <1> d           4.369  44.866  52.111  0.00  0.00     0.248 A 
ATOM      5  C15 <1> d           4.884  43.712  51.446  0.00  0.00     0.169 A 
ATOM      6  N3  <1> d           6.041  43.392  50.680  0.00  0.00    -0.229 NA
ATOM      7  N4  <1> d           4.708  41.654  50.704  0.00  0.00    -0.329 N 
ATOM      8  C16 <1> d           4.130  42.624  51.364  0.00  0.00     0.167 A 
ATOM      9  N5  <1> d           2.887  42.662  52.016  0.00  0.00    -0.195 NA
ATOM     10  N6  <1> d           1.225  43.628  53.188  0.00  0.00    -0.283 N 
ATOM     11  H20 <1> d           4.351  40.735  50.537  0.00  0.00     0.168 HD
ATOM     12  H21 <1> d           0.582  42.913  52.915  0.00  0.00     0.155 HD
ENDROOT
BRANCH  10  13
ATOM     13  C17 <1> d           0.845  44.503  54.183  0.00  0.00     0.034 A 
ATOM     14  C13 <1> d           0.247  45.759  54.061  0.00  0.00     0.025 A 
ATOM     15  C12 <1> d          -0.083  46.578  55.113  0.00  0.00     0.030 A 
ATOM     16  C11 <1> d           0.252  46.156  56.453  0.00  0.00     0.105 A 
ATOM     17  C10 <1> d           0.889  44.949  56.599  0.00  0.00     0.030 A 
ATOM     18  C18 <1> d           1.161  44.144  55.511  0.00  0.00     0.025 A 
BRANCH  16  19
ATOM     19  S1  <1> d          -0.035  47.179  57.833  0.00  0.00     0.056 S 
ATOM     20  O2  <1> d          -1.427  47.001  58.220  0.00  0.00    -0.153 OA
ATOM     21  O3  <1> d           0.393  48.556  57.612  0.00  0.00    -0.153 OA
BRANCH  19  22
ATOM     22  N1  <1> d           0.852  46.651  59.035  0.00  0.00    -0.203 NA
ATOM     23  H18 <1> d           0.355  45.937  59.528  0.00  0.00     0.144 HD
ATOM     24  H19 <1> d           1.055  47.407  59.657  0.00  0.00     0.144 HD
ENDBRANCH  19  22
ENDBRANCH  16  19
ENDBRANCH  10  13
BRANCH   4  25
ATOM     25  O1  <1> d           5.158  45.931  52.070  0.00  0.00    -0.474 OA
BRANCH  25  26
ATOM     26  C3  <1> d           5.359  46.310  53.491  0.00  0.00     0.234 C 
BRANCH  26  27
ATOM     27  C4  <1> d           6.777  46.941  53.621  0.00  0.00     0.027 C 
ATOM     28  C5  <1> d           7.931  46.171  52.919  0.00  0.00     0.007 C 
ATOM     29  C6  <1> d           9.313  46.813  52.984  0.00  0.00     0.000 C 
ATOM     30  C7  <1> d           9.736  47.105  54.507  0.00  0.00     0.000 C 
ATOM     31  C8  <1> d           8.608  47.908  55.145  0.00  0.00     0.000 C 
ATOM     32  C9  <1> d           7.171  47.277  55.073  0.00  0.00     0.007 C 
ENDBRANCH  26  27
ENDBRANCH  25  26
ENDBRANCH   4  25
TORSDOF 6
ENDMDL
MODEL 4
REMARK VINA RESULT:      -8.6      4.307      7.320
REMARK  6 active torsions:
REMARK  status: ('A' for Active; 'I' for Inactive)
REMARK    1  A    between atoms: C3_3  and  C4_4 
REMARK    2  A    between atoms: C3_3  and  O1_17 
REMARK    3  A    between atoms: C11_11  and  S1_26 
REMARK    4  A    between atoms: N1_14  and  S1_26 
REMARK    5  A    between atoms: C14_16  and  O1_17 
REMARK    6  A    between atoms: N6_23  and  C17_24 
ROOT
ATOM      1  C1  <1> d           2.759  43.409  52.884  0.00  0.00     0.225 A 
ATOM      2  C2  <1> d           6.167  42.607  50.148  0.00  0.00     0.199 A 
ATOM      3  N2  <1> d           3.402  44.696  53.034  0.00  0.00    -0.177 NA
ATOM      4  C14 <1> d           4.493  44.912  52.334  0.00  0.00     0.248 A 
ATOM      5  C15 <1> d           5.094  43.904  51.520  0.00  0.00     0.169 A 
ATOM      6  N3  <1> d           6.194  43.824  50.621  0.00  0.00    -0.229 NA
ATOM      7  N4  <1> d           5.136  41.906  50.612  0.00  0.00    -0.329 N 
ATOM      8  C16 <1> d           4.499  42.723  51.411  0.00  0.00     0.167 A 
ATOM      9  N5  <1> d           3.342  42.522  52.181  0.00  0.00    -0.195 NA
ATOM     10  N6  <1> d           1.696  43.131  53.590  0.00  0.00    -0.283 N 
ATOM     11  H20 <1> d           4.899  40.959  50.397  0.00  0.00     0.168 HD
ATOM     12  H21 <1> d           1.137  42.349  53.315  0.00  0.00     0.155 HD
ENDROOT
BRANCH  10  13
ATOM     13  C17 <1> d           1.304  43.858  54.693  0.00  0.00     0.034 A 
ATOM     14  C13 <1> d           2.096  44.574  55.594  0.00  0.00     0.025 A 
ATOM     15  C12 <1> d           1.621  45.260  56.685  0.00  0.00     0.030 A 
ATOM     16  C11 <1> d           0.207  45.210  56.975  0.00  0.00     0.105 A 
ATOM     17  C10 <1> d          -0.588  44.470  56.136  0.00  0.00     0.030 A 
ATOM     18  C18 <1> d          -0.067  43.833  55.028  0.00  0.00     0.025 A 
BRANCH  16  19
ATOM     19  S1  <1> d          -0.462  45.963  58.396  0.00  0.00     0.056 S 
ATOM     20  O2  <1> d          -1.046  44.908  59.209  0.00  0.00    -0.153 OA
ATOM     21  O3  <1> d          -1.342  47.083  58.078  0.00  0.00    -0.153 OA
BRANCH  19  22
ATOM     22  N1  <1> d           0.729  46.589  59.232  0.00  0.00    -0.203 NA
ATOM     23  H18 <1> d           0.566  46.440  60.207  0.00  0.00     0.144 HD
ATOM     24  H19 <1> d           0.786  47.570  59.049  0.00  0.00     0.144 HD
ENDBRANCH  19  22
ENDBRANCH  16  19
ENDBRANCH  10  13
BRANCH   4  25
ATOM     25  O1  <1> d           5.112  46.085  52.315  0.00  0.00    -0.474 OA
BRANCH  25  26
ATOM     26  C3  <1> d           5.300  46.438  53.745  0.00  0.00     0.234 C 
BRANCH  26  27
ATOM     27  C4  <1> d           6.700  47.102  53.892  0.00  0.00     0.027 C 
ATOM     28  C5  <1> d           7.892  46.326  53.264  0.00  0.00     0.007 C 
ATOM     29  C6  <1> d           9.258  46.997  53.344  0.00  0.00     0.000 C 
ATOM     30  C7  <1> d           9.625  47.364  54.866  0.00  0.00     0.000 C 
ATOM     31  C8  <1> d           8.461  48.172  55.431  0.00  0.00     0.000 C 
ATOM     32  C9  <1> d           7.040  47.510  55.340  0.00  0.00     0.007 C 
ENDBRANCH  26  27
ENDBRANCH  25  26
ENDBRANCH   4  25
TORSDOF 6
ENDMDL
MODEL 5
REMARK VINA RESULT:      -8.3      4.291      7.133
REMARK  6 active torsions:
REMARK  status: ('A' for Active; 'I' for Inactive)
REMARK    1  A    between atoms: C3_3  and  C4_4 
REMARK    2  A    between atoms: C3_3  and  O1_17 
REMARK    3  A    between atoms: C11_11  and  S1_26 
REMARK    4  A    between atoms: N1_14  and  S1_26 
REMARK    5  A    between atoms: C14_16  and  O1_17 
REMARK    6  A    between atoms: N6_23  and  C17_24 
ROOT
ATOM      1  C1  <1> d           5.158  46.638  55.679  0.00  0.00     0.225 A 
ATOM      2  C2  <1> d           9.429  47.618  54.944  0.00  0.00     0.199 A 
ATOM      3  N2  <1> d           5.302  45.862  54.467  0.00  0.00    -0.177 NA
ATOM      4  C14 <1> d           6.487  45.845  53.898  0.00  0.00     0.248 A 
ATOM      5  C15 <1> d           7.582  46.622  54.384  0.00  0.00     0.169 A 
ATOM      6  N3  <1> d           8.958  46.783  54.058  0.00  0.00    -0.229 NA
ATOM      7  N4  <1> d           8.511  47.979  55.836  0.00  0.00    -0.329 N 
ATOM      8  C16 <1> d           7.423  47.343  55.486  0.00  0.00     0.167 A 
ATOM      9  N5  <1> d           6.142  47.348  56.062  0.00  0.00    -0.195 NA
ATOM     10  N6  <1> d           3.990  46.721  56.258  0.00  0.00    -0.283 N 
ATOM     11  H20 <1> d           8.627  48.603  56.609  0.00  0.00     0.168 HD
ATOM     12  H21 <1> d           3.951  47.058  57.199  0.00  0.00     0.155 HD
ENDROOT
BRANCH  10  13
ATOM     13  C17 <1> d           2.809  46.369  55.641  0.00  0.00     0.034 A 
ATOM     14  C13 <1> d           2.023  47.119  54.764  0.00  0.00     0.025 A 
ATOM     15  C12 <1> d           0.842  46.694  54.206  0.00  0.00     0.030 A 
ATOM     16  C11 <1> d           0.324  45.399  54.581  0.00  0.00     0.105 A 
ATOM     17  C10 <1> d           1.049  44.661  55.483  0.00  0.00     0.030 A 
ATOM     18  C18 <1> d           2.252  45.117  55.983  0.00  0.00     0.025 A 
BRANCH  16  19
ATOM     19  S1  <1> d          -1.217  44.829  54.003  0.00  0.00     0.056 S 
ATOM     20  O2  <1> d          -2.173  44.994  55.088  0.00  0.00    -0.153 OA
ATOM     21  O3  <1> d          -1.141  43.494  53.420  0.00  0.00    -0.153 OA
BRANCH  19  22
ATOM     22  N1  <1> d          -1.686  45.778  52.824  0.00  0.00    -0.203 NA
ATOM     23  H18 <1> d          -0.886  46.112  52.326  0.00  0.00     0.144 HD
ATOM     24  H19 <1> d          -2.192  46.553  53.201  0.00  0.00     0.144 HD
ENDBRANCH  19  22
ENDBRANCH  16  19
ENDBRANCH  10  13
BRANCH   4  25
ATOM     25  O1  <1> d           6.763  45.092  52.841  0.00  0.00    -0.474 OA
BRANCH  25  26
ATOM     26  C3  <1> d           5.662  45.363  51.884  0.00  0.00     0.234 C 
BRANCH  26  27
ATOM     27  C4  <1> d           4.652  44.182  51.972  0.00  0.00     0.027 C 
ATOM     28  C5  <1> d           4.925  42.980  51.025  0.00  0.00     0.007 C 
ATOM     29  C6  <1> d           3.981  41.789  51.148  0.00  0.00     0.000 C 
ATOM     30  C7  <1> d           2.452  42.252  50.968  0.00  0.00     0.000 C 
ATOM     31  C8  <1> d           2.204  43.391  51.951  0.00  0.00     0.000 C 
ATOM     32  C9  <1> d           3.178  44.621  51.857  0.00  0.00     0.007 C 
ENDBRANCH  26  27
ENDBRANCH  25  26
ENDBRANCH   4  25
TORSDOF 6
ENDMDL
MODEL 6
REMARK VINA RESULT:      -8.3      6.509     10.647
REMARK  6 active torsions:
REMARK  status: ('A' for Active; 'I' for Inactive)
REMARK    1  A    between atoms: C3_3  and  C4_4 
REMARK    2  A    between atoms: C3_3  and  O1_17 
REMARK    3  A    between atoms: C11_11  and  S1_26 
REMARK    4  A    between atoms: N1_14  and  S1_26 
REMARK    5  A    between atoms: C14_16  and  O1_17 
REMARK    6  A    between atoms: N6_23  and  C17_24 
ROOT
ATOM      1  C1  <1> d           1.664  48.410  56.455  0.00  0.00     0.225 A 
ATOM      2  C2  <1> d           2.860  44.596  54.513  0.00  0.00     0.199 A 
ATOM      3  N2  <1> d           2.977  48.842  56.031  0.00  0.00    -0.177 NA
ATOM      4  C14 <1> d           3.706  47.984  55.352  0.00  0.00     0.248 A 
ATOM      5  C15 <1> d           3.281  46.643  55.106  0.00  0.00     0.169 A 
ATOM      6  N3  <1> d           3.774  45.520  54.385  0.00  0.00    -0.229 NA
ATOM      7  N4  <1> d           1.806  45.021  55.204  0.00  0.00    -0.329 N 
ATOM      8  C16 <1> d           2.080  46.260  55.522  0.00  0.00     0.167 A 
ATOM      9  N5  <1> d           1.333  47.197  56.253  0.00  0.00    -0.195 NA
ATOM     10  N6  <1> d           0.918  49.211  57.169  0.00  0.00    -0.283 N 
ATOM     11  H20 <1> d           0.980  44.504  55.433  0.00  0.00     0.168 HD
ATOM     12  H21 <1> d          -0.055  48.999  57.257  0.00  0.00     0.155 HD
ENDROOT
BRANCH  10  13
ATOM     13  C17 <1> d           1.403  50.332  57.806  0.00  0.00     0.034 A 
ATOM     14  C13 <1> d           2.225  51.340  57.297  0.00  0.00     0.025 A 
ATOM     15  C12 <1> d           2.680  52.421  58.014  0.00  0.00     0.030 A 
ATOM     16  C11 <1> d           2.341  52.517  59.414  0.00  0.00     0.105 A 
ATOM     17  C10 <1> d           1.577  51.512  59.955  0.00  0.00     0.030 A 
ATOM     18  C18 <1> d           1.111  50.469  59.181  0.00  0.00     0.025 A 
BRANCH  16  19
ATOM     19  S1  <1> d           2.962  53.797  60.420  0.00  0.00     0.056 S 
ATOM     20  O2  <1> d           2.109  54.958  60.216  0.00  0.00    -0.153 OA
ATOM     21  O3  <1> d           4.392  54.017  60.232  0.00  0.00    -0.153 OA
BRANCH  19  22
ATOM     22  N1  <1> d           2.798  53.361  61.934  0.00  0.00    -0.203 NA
ATOM     23  H18 <1> d           1.860  53.537  62.232  0.00  0.00     0.144 HD
ATOM     24  H19 <1> d           3.432  53.885  62.503  0.00  0.00     0.144 HD
ENDBRANCH  19  22
ENDBRANCH  16  19
ENDBRANCH  10  13
BRANCH   4  25
ATOM     25  O1  <1> d           4.882  48.300  54.828  0.00  0.00    -0.474 OA
BRANCH  25  26
ATOM     26  C3  <1> d           5.874  47.926  55.867  0.00  0.00     0.234 C 
BRANCH  26  27
ATOM     27  C4  <1> d           7.073  47.234  55.155  0.00  0.00     0.027 C 
ATOM     28  C5  <1> d           8.474  47.854  55.424  0.00  0.00     0.007 C 
ATOM     29  C6  <1> d           9.663  47.146  54.786  0.00  0.00     0.000 C 
ATOM     30  C7  <1> d           9.458  47.003  53.197  0.00  0.00     0.000 C 
ATOM     31  C8  <1> d           8.102  46.341  52.974  0.00  0.00     0.000 C 
ATOM     32  C9  <1> d           6.863  47.040  53.640  0.00  0.00     0.007 C 
ENDBRANCH  26  27
ENDBRANCH  25  26
ENDBRANCH   4  25
TORSDOF 6
ENDMDL
MODEL 7
REMARK VINA RESULT:      -8.3      4.884      8.292
REMARK  6 active torsions:
REMARK  status: ('A' for Active; 'I' for Inactive)
REMARK    1  A    between atoms: C3_3  and  C4_4 
REMARK    2  A    between atoms: C3_3  and  O1_17 
REMARK    3  A    between atoms: C11_11  and  S1_26 
REMARK    4  A    between atoms: N1_14  and  S1_26 
REMARK    5  A    between atoms: C14_16  and  O1_17 
REMARK    6  A    between atoms: N6_23  and  C17_24 
ROOT
ATOM      1  C1  <1> d           1.221  44.425  53.777  0.00  0.00     0.225 A 
ATOM      2  C2  <1> d           3.632  42.086  50.869  0.00  0.00     0.199 A 
ATOM      3  N2  <1> d           2.517  44.856  54.250  0.00  0.00    -0.177 NA
ATOM      4  C14 <1> d           3.574  44.402  53.613  0.00  0.00     0.248 A 
ATOM      5  C15 <1> d           3.480  43.451  52.552  0.00  0.00     0.169 A 
ATOM      6  N3  <1> d           4.380  42.824  51.645  0.00  0.00    -0.229 NA
ATOM      7  N4  <1> d           2.338  42.207  51.151  0.00  0.00    -0.329 N 
ATOM      8  C16 <1> d           2.281  43.053  52.147  0.00  0.00     0.167 A 
ATOM      9  N5  <1> d           1.174  43.548  52.856  0.00  0.00    -0.195 NA
ATOM     10  N6  <1> d           0.142  44.815  54.403  0.00  0.00    -0.283 N 
ATOM     11  H20 <1> d           1.572  41.749  50.699  0.00  0.00     0.168 HD
ATOM     12  H21 <1> d          -0.739  44.706  53.942  0.00  0.00     0.155 HD
ENDROOT
BRANCH  10  13
ATOM     13  C17 <1> d           0.154  45.369  55.665  0.00  0.00     0.034 A 
ATOM     14  C13 <1> d           0.158  44.723  56.903  0.00  0.00     0.025 A 
ATOM     15  C12 <1> d           0.150  45.358  58.122  0.00  0.00     0.030 A 
ATOM     16  C11 <1> d           0.080  46.801  58.152  0.00  0.00     0.105 A 
ATOM     17  C10 <1> d           0.023  47.460  56.949  0.00  0.00     0.030 A 
ATOM     18  C18 <1> d           0.075  46.776  55.752  0.00  0.00     0.025 A 
BRANCH  16  19
ATOM     19  S1  <1> d          -0.039  47.679  59.651  0.00  0.00     0.056 S 
ATOM     20  O2  <1> d          -1.317  47.332  60.254  0.00  0.00    -0.153 OA
ATOM     21  O3  <1> d           0.223  49.105  59.491  0.00  0.00    -0.153 OA
BRANCH  19  22
ATOM     22  N1  <1> d           1.092  47.150  60.626  0.00  0.00    -0.203 NA
ATOM     23  H18 <1> d           1.504  47.922  61.110  0.00  0.00     0.144 HD
ATOM     24  H19 <1> d           1.795  46.675  60.096  0.00  0.00     0.144 HD
ENDBRANCH  19  22
ENDBRANCH  16  19
ENDBRANCH  10  13
BRANCH   4  25
ATOM     25  O1  <1> d           4.807  44.804  53.893  0.00  0.00    -0.474 OA
BRANCH  25  26
ATOM     26  C3  <1> d           4.767  46.281  53.748  0.00  0.00     0.234 C 
BRANCH  26  27
ATOM     27  C4  <1> d           6.150  46.745  53.204  0.00  0.00     0.027 C 
ATOM     28  C5  <1> d           7.086  45.621  52.675  0.00  0.00     0.007 C 
ATOM     29  C6  <1> d           8.415  46.069  52.080  0.00  0.00     0.000 C 
ATOM     30  C7  <1> d           9.235  46.973  53.127  0.00  0.00     0.000 C 
ATOM     31  C8  <1> d           8.306  48.095  53.580  0.00  0.00     0.000 C 
ATOM     32  C9  <1> d           6.920  47.659  54.178  0.00  0.00     0.007 C 
ENDBRANCH  26  27
ENDBRANCH  25  26
ENDBRANCH   4  25
TORSDOF 6
ENDMDL
MODEL 8
REMARK VINA RESULT:      -8.1      4.339      7.537
REMARK  6 active torsions:
REMARK  status: ('A' for Active; 'I' for Inactive)
REMARK    1  A    between atoms: C3_3  and  C4_4 
REMARK    2  A    between atoms: C3_3  and  O1_17 
REMARK    3  A    between atoms: C11_11  and  S1_26 
REMARK    4  A    between atoms: N1_14  and  S1_26 
REMARK    5  A    between atoms: C14_16  and  O1_17 
REMARK    6  A    between atoms: N6_23  and  C17_24 
ROOT
ATOM      1  C1  <1> d           1.695  45.379  55.232  0.00  0.00     0.225 A 
ATOM      2  C2  <1> d          -1.552  42.464  54.392  0.00  0.00     0.199 A 
ATOM      3  N2  <1> d           2.249  44.860  54.002  0.00  0.00    -0.177 NA
ATOM      4  C14 <1> d           1.554  43.944  53.364  0.00  0.00     0.248 A 
ATOM      5  C15 <1> d           0.343  43.400  53.888  0.00  0.00     0.169 A 
ATOM      6  N3  <1> d          -0.650  42.480  53.447  0.00  0.00    -0.229 NA
ATOM      7  N4  <1> d          -1.267  43.312  55.377  0.00  0.00    -0.329 N 
ATOM      8  C16 <1> d          -0.139  43.875  55.029  0.00  0.00     0.167 A 
ATOM      9  N5  <1> d           0.634  44.844  55.689  0.00  0.00    -0.195 NA
ATOM     10  N6  <1> d           2.368  46.259  55.925  0.00  0.00    -0.283 N 
ATOM     11  H20 <1> d          -1.801  43.482  56.205  0.00  0.00     0.168 HD
ATOM     12  H21 <1> d           1.885  46.773  56.634  0.00  0.00     0.155 HD
ENDROOT
BRANCH  10  13
ATOM     13  C17 <1> d           3.707  46.517  55.728  0.00  0.00     0.034 A 
ATOM     14  C13 <1> d           4.813  45.800  56.191  0.00  0.00     0.025 A 
ATOM     15  C12 <1> d           6.124  46.142  55.963  0.00  0.00     0.030 A 
ATOM     16  C11 <1> d           6.407  47.359  55.238  0.00  0.00     0.105 A 
ATOM     17  C10 <1> d           5.340  48.111  54.816  0.00  0.00     0.030 A 
ATOM     18  C18 <1> d           4.040  47.702  55.035  0.00  0.00     0.025 A 
BRANCH  16  19
ATOM     19  S1  <1> d           8.038  47.919  54.996  0.00  0.00     0.056 S 
ATOM     20  O2  <1> d           8.869  46.746  54.769  0.00  0.00    -0.153 OA
ATOM     21  O3  <1> d           8.486  48.822  56.051  0.00  0.00    -0.153 OA
BRANCH  19  22
ATOM     22  N1  <1> d           8.075  48.778  53.665  0.00  0.00    -0.203 NA
ATOM     23  H18 <1> d           8.990  48.736  53.265  0.00  0.00     0.144 HD
ATOM     24  H19 <1> d           7.845  49.728  53.874  0.00  0.00     0.144 HD
ENDBRANCH  19  22
ENDBRANCH  16  19
ENDBRANCH  10  13
BRANCH   4  25
ATOM     25  O1  <1> d           1.913  43.468  52.180  0.00  0.00    -0.474 OA
BRANCH  25  26
ATOM     26  C3  <1> d           3.200  42.769  52.426  0.00  0.00     0.234 C 
BRANCH  26  27
ATOM     27  C4  <1> d           4.307  43.508  51.619  0.00  0.00     0.027 C 
ATOM     28  C5  <1> d           5.276  42.605  50.806  0.00  0.00     0.007 C 
ATOM     29  C6  <1> d           6.323  43.320  49.961  0.00  0.00     0.000 C 
ATOM     30  C7  <1> d           7.192  44.330  50.861  0.00  0.00     0.000 C 
ATOM     31  C8  <1> d           6.211  45.236  51.599  0.00  0.00     0.000 C 
ATOM     32  C9  <1> d           5.109  44.522  52.460  0.00  0.00     0.007 C 
ENDBRANCH  26  27
ENDBRANCH  25  26
ENDBRANCH   4  25
TORSDOF 6
ENDMDL
MODEL 9
REMARK VINA RESULT:      -8.1      4.278      6.038
REMARK  6 active torsions:
REMARK  status: ('A' for Active; 'I' for Inactive)
REMARK    1  A    between atoms: C3_3  and  C4_4 
REMARK    2  A    between atoms: C3_3  and  O1_17 
REMARK    3  A    between atoms: C11_11  and  S1_26 
REMARK    4  A    between atoms: N1_14  and  S1_26 
REMARK    5  A    between atoms: C14_16  and  O1_17 
REMARK    6  A    between atoms: N6_23  and  C17_24 
ROOT
ATOM      1  C1  <1> d           5.928  44.840  51.927  0.00  0.00     0.225 A 
ATOM      2  C2  <1> d          10.033  46.512  52.235  0.00  0.00     0.199 A 
ATOM      3  N2  <1> d           5.618  45.868  52.895  0.00  0.00    -0.177 NA
ATOM      4  C14 <1> d           6.597  46.664  53.266  0.00  0.00     0.248 A 
ATOM      5  C15 <1> d           7.941  46.487  52.817  0.00  0.00     0.169 A 
ATOM      6  N3  <1> d           9.178  47.174  52.966  0.00  0.00    -0.229 NA
ATOM      7  N4  <1> d           9.467  45.494  51.592  0.00  0.00    -0.329 N 
ATOM      8  C16 <1> d           8.208  45.524  51.943  0.00  0.00     0.167 A 
ATOM      9  N5  <1> d           7.142  44.686  51.577  0.00  0.00    -0.195 NA
ATOM     10  N6  <1> d           5.000  43.998  51.559  0.00  0.00    -0.283 N 
ATOM     11  H20 <1> d           9.910  44.844  50.974  0.00  0.00     0.168 HD
ATOM     12  H21 <1> d           5.155  43.452  50.735  0.00  0.00     0.155 HD
ENDROOT
BRANCH  10  13
ATOM     13  C17 <1> d           3.817  43.823  52.244  0.00  0.00     0.034 A 
ATOM     14  C13 <1> d           3.605  43.202  53.477  0.00  0.00     0.025 A 
ATOM     15  C12 <1> d           2.381  43.054  54.083  0.00  0.00     0.030 A 
ATOM     16  C11 <1> d           1.203  43.519  53.389  0.00  0.00     0.105 A 
ATOM     17  C10 <1> d           1.375  44.086  52.151  0.00  0.00     0.030 A 
ATOM     18  C18 <1> d           2.633  44.249  51.605  0.00  0.00     0.025 A 
BRANCH  16  19
ATOM     19  S1  <1> d          -0.396  43.276  54.037  0.00  0.00     0.056 S 
ATOM     20  O2  <1> d          -1.336  43.436  52.939  0.00  0.00    -0.153 OA
ATOM     21  O3  <1> d          -0.654  44.090  55.220  0.00  0.00    -0.153 OA
BRANCH  19  22
ATOM     22  N1  <1> d          -0.508  41.774  54.528  0.00  0.00    -0.203 NA
ATOM     23  H18 <1> d          -1.360  41.651  55.037  0.00  0.00     0.144 HD
ATOM     24  H19 <1> d           0.269  41.557  55.120  0.00  0.00     0.144 HD
ENDBRANCH  19  22
ENDBRANCH  16  19
ENDBRANCH  10  13
BRANCH   4  25
ATOM     25  O1  <1> d           6.411  47.701  54.072  0.00  0.00    -0.474 OA
BRANCH  25  26
ATOM     26  C3  <1> d           6.277  47.110  55.427  0.00  0.00     0.234 C 
BRANCH  26  27
ATOM     27  C4  <1> d           4.795  47.276  55.875  0.00  0.00     0.027 C 
ATOM     28  C5  <1> d           3.931  45.984  55.861  0.00  0.00     0.007 C 
ATOM     29  C6  <1> d           2.497  46.120  56.360  0.00  0.00     0.000 C 
ATOM     30  C7  <1> d           1.718  47.271  55.551  0.00  0.00     0.000 C 
ATOM     31  C8  <1> d           2.566  48.536  55.635  0.00  0.00     0.000 C 
ATOM     32  C9  <1> d           4.054  48.415  55.146  0.00  0.00     0.007 C 
ENDBRANCH  26  27
ENDBRANCH  25  26
ENDBRANCH   4  25
TORSDOF 6
ENDMDL
MODEL 10
REMARK VINA RESULT:      -8.1      3.893      7.440
REMARK  6 active torsions:
REMARK  status: ('A' for Active; 'I' for Inactive)
REMARK    1  A    between atoms: C3_3  and  C4_4 
REMARK    2  A    between atoms: C3_3  and  O1_17 
REMARK    3  A    between atoms: C11_11  and  S1_26 
REMARK    4  A    between atoms: N1_14  and  S1_26 
REMARK    5  A    between atoms: C14_16  and  O1_17 
REMARK    6  A    between atoms: N6_23  and  C17_24 
ROOT
ATOM      1  C1  <1> d           3.287  46.306  54.701  0.00  0.00     0.225 A 
ATOM      2  C2  <1> d           0.326  45.588  57.935  0.00  0.00     0.199 A 
ATOM      3  N2  <1> d           2.778  45.054  54.188  0.00  0.00    -0.177 NA
ATOM      4  C14 <1> d           1.808  44.475  54.860  0.00  0.00     0.248 A 
ATOM      5  C15 <1> d           1.319  44.991  56.097  0.00  0.00     0.169 A 
ATOM      6  N3  <1> d           0.281  44.663  57.015  0.00  0.00    -0.229 NA
ATOM      7  N4  <1> d           1.256  46.506  57.684  0.00  0.00    -0.329 N 
ATOM      8  C16 <1> d           1.813  46.132  56.562  0.00  0.00     0.167 A 
ATOM      9  N5  <1> d           2.855  46.718  55.826  0.00  0.00    -0.195 NA
ATOM     10  N6  <1> d           4.279  46.900  54.092  0.00  0.00    -0.283 N 
ATOM     11  H20 <1> d           1.480  47.310  58.235  0.00  0.00     0.168 HD
ATOM     12  H21 <1> d           4.465  47.857  54.312  0.00  0.00     0.155 HD
ENDROOT
BRANCH  10  13
ATOM     13  C17 <1> d           5.082  46.275  53.163  0.00  0.00     0.034 A 
ATOM     14  C13 <1> d           4.724  45.354  52.176  0.00  0.00     0.025 A 
ATOM     15  C12 <1> d           5.600  44.762  51.298  0.00  0.00     0.030 A 
ATOM     16  C11 <1> d           7.008  45.056  51.418  0.00  0.00     0.105 A 
ATOM     17  C10 <1> d           7.396  45.918  52.414  0.00  0.00     0.030 A 
ATOM     18  C18 <1> d           6.471  46.519  53.244  0.00  0.00     0.025 A 
BRANCH  16  19
ATOM     19  S1  <1> d           8.195  44.269  50.415  0.00  0.00     0.056 S 
ATOM     20  O2  <1> d           9.507  44.653  50.917  0.00  0.00    -0.153 OA
ATOM     21  O3  <1> d           7.968  44.494  48.992  0.00  0.00    -0.153 OA
BRANCH  19  22
ATOM     22  N1  <1> d           8.059  42.705  50.621  0.00  0.00    -0.203 NA
ATOM     23  H18 <1> d           8.626  42.229  49.949  0.00  0.00     0.144 HD
ATOM     24  H19 <1> d           7.103  42.435  50.504  0.00  0.00     0.144 HD
ENDBRANCH  19  22
ENDBRANCH  16  19
ENDBRANCH  10  13
BRANCH   4  25
ATOM     25  O1  <1> d           1.197  43.377  54.434  0.00  0.00    -0.474 OA
BRANCH  25  26
ATOM     26  C3  <1> d           0.046  43.868  53.636  0.00  0.00     0.234 C 
BRANCH  26  27
ATOM     27  C4  <1> d          -1.072  42.788  53.697  0.00  0.00     0.027 C 
ATOM     28  C5  <1> d          -1.114  41.922  54.987  0.00  0.00     0.007 C 
ATOM     29  C6  <1> d          -2.245  40.905  55.087  0.00  0.00     0.000 C 
ATOM     30  C7  <1> d          -2.250  39.929  53.809  0.00  0.00     0.000 C 
ATOM     31  C8  <1> d          -2.267  40.811  52.566  0.00  0.00     0.000 C 
ATOM     32  C9  <1> d          -1.123  41.881  52.450  0.00  0.00     0.007 C 
ENDBRANCH  26  27
ENDBRANCH  25  26
ENDBRANCH   4  25
TORSDOF 6
ENDMDL
