MODEL 1
REMARK VINA RESULT:      -7.9      0.000      0.000
REMARK  6 active torsions:
REMARK  status: ('A' for Active; 'I' for Inactive)
REMARK    1  A    between atoms: C1_1  and  O2_3 
REMARK    2  A    between atoms: C1_1  and  C10_14 
REMARK    3  A    between atoms: O2_3  and  C2_4 
REMARK    4  A    between atoms: C2_4  and  C3_5 
REMARK    5  A    between atoms: C3_5  and  C4_6 
REMARK    6  A    between atoms: C11_15  and  C12_16 
ROOT
ATOM      1  O2   11 d         -14.247 205.901 110.445  0.00  0.00    -0.310 OA
ENDROOT
BRANCH   1   2
ATOM      2  C1   11 d         -15.337 206.702 110.897  0.00  0.00     0.283 C 
ATOM      3  O1   11 d         -15.407 207.914 110.568  0.00  0.00    -0.260 OA
BRANCH   2   4
ATOM      4  C10  11 d         -16.411 206.140 111.755  0.00  0.00     0.083 C 
ATOM      5  C11  11 d         -16.415 205.979 113.097  0.00  0.00     0.017 C 
BRANCH   5   6
ATOM      6  C12  11 d         -15.400 206.477 114.056  0.00  0.00    -0.036 A 
ATOM      7  C13  11 d         -15.128 207.853 114.197  0.00  0.00     0.011 A 
ATOM      8  C14  11 d         -14.184 208.298 115.135  0.00  0.00     0.001 A 
ATOM      9  C15  11 d         -13.516 207.375 115.950  0.00  0.00     0.000 A 
ATOM     10  C16  11 d         -13.800 206.005 115.836  0.00  0.00     0.001 A 
ATOM     11  C17  11 d         -14.743 205.559 114.899  0.00  0.00     0.011 A 
ENDBRANCH   5   6
ENDBRANCH   2   4
ENDBRANCH   1   2
BRANCH   1  12
ATOM     12  C2   11 d         -13.084 205.987 111.317  0.00  0.00     0.263 C 
BRANCH  12  13
ATOM     13  C3   11 d         -12.063 206.992 110.824  0.00  0.00     0.183 C 
ATOM     14  O3   11 d         -12.110 207.372 109.623  0.00  0.00    -0.290 OA
BRANCH  13  15
ATOM     15  C4   11 d         -11.054 207.608 111.744  0.00  0.00     0.012 A 
ATOM     16  C5   11 d         -11.207 207.477 113.144  0.00  0.00     0.016 A 
ATOM     17  C6   11 d         -10.276 208.049 114.025  0.00  0.00     0.020 A 
ATOM     18  C7   11 d          -9.180 208.763 113.522  0.00  0.00     0.011 A 
ATOM     19 Br1   11 d          -7.902 209.550 114.735  0.00  0.00    -0.051 Br
ATOM     20  C8   11 d          -9.016 208.906 112.139  0.00  0.00     0.020 A 
ATOM     21  C9   11 d          -9.945 208.335 111.255  0.00  0.00     0.016 A 
ENDBRANCH  13  15
ENDBRANCH  12  13
ENDBRANCH   1  12
TORSDOF 6
ENDMDL
MODEL 2
REMARK VINA RESULT:      -7.8      3.117      5.640
REMARK  6 active torsions:
REMARK  status: ('A' for Active; 'I' for Inactive)
REMARK    1  A    between atoms: C1_1  and  O2_3 
REMARK    2  A    between atoms: C1_1  and  C10_14 
REMARK    3  A    between atoms: O2_3  and  C2_4 
REMARK    4  A    between atoms: C2_4  and  C3_5 
REMARK    5  A    between atoms: C3_5  and  C4_6 
REMARK    6  A    between atoms: C11_15  and  C12_16 
ROOT
ATOM      1  O2   11 d         -11.316 208.410 113.460  0.00  0.00    -0.310 OA
ENDROOT
BRANCH   1   2
ATOM      2  C1   11 d         -11.312 207.221 112.673  0.00  0.00     0.283 C 
ATOM      3  O1   11 d         -11.197 206.098 113.229  0.00  0.00    -0.260 OA
BRANCH   2   4
ATOM      4  C10  11 d         -11.448 207.266 111.195  0.00  0.00     0.083 C 
ATOM      5  C11  11 d         -12.504 206.897 110.438  0.00  0.00     0.017 C 
BRANCH   5   6
ATOM      6  C12  11 d         -13.850 206.504 110.920  0.00  0.00    -0.036 A 
ATOM      7  C13  11 d         -14.923 207.417 110.946  0.00  0.00     0.011 A 
ATOM      8  C14  11 d         -16.194 207.010 111.378  0.00  0.00     0.001 A 
ATOM      9  C15  11 d         -16.408 205.682 111.772  0.00  0.00     0.000 A 
ATOM     10  C16  11 d         -15.353 204.758 111.723  0.00  0.00     0.001 A 
ATOM     11  C17  11 d         -14.082 205.164 111.291  0.00  0.00     0.011 A 
ENDBRANCH   5   6
ENDBRANCH   2   4
ENDBRANCH   1   2
BRANCH   1  12
ATOM     12  C2   11 d         -11.521 208.147 114.878  0.00  0.00     0.263 C 
BRANCH  12  13
ATOM     13  C3   11 d         -12.988 208.077 115.247  0.00  0.00     0.183 C 
ATOM     14  O3   11 d         -13.725 209.072 115.017  0.00  0.00    -0.290 OA
BRANCH  13  15
ATOM     15  C4   11 d         -13.603 206.828 115.802  0.00  0.00     0.012 A 
ATOM     16  C5   11 d         -14.506 206.079 115.012  0.00  0.00     0.016 A 
ATOM     17  C6   11 d         -15.096 204.908 115.512  0.00  0.00     0.020 A 
ATOM     18  C7   11 d         -14.798 204.469 116.809  0.00  0.00     0.011 A 
ATOM     19 Br1   11 d         -15.612 202.860 117.495  0.00  0.00    -0.051 Br
ATOM     20  C8   11 d         -13.909 205.201 117.606  0.00  0.00     0.020 A 
ATOM     21  C9   11 d         -13.317 206.372 117.109  0.00  0.00     0.016 A 
ENDBRANCH  13  15
ENDBRANCH  12  13
ENDBRANCH   1  12
TORSDOF 6
ENDMDL
MODEL 3
REMARK VINA RESULT:      -7.8      2.152      3.820
REMARK  6 active torsions:
REMARK  status: ('A' for Active; 'I' for Inactive)
REMARK    1  A    between atoms: C1_1  and  O2_3 
REMARK    2  A    between atoms: C1_1  and  C10_14 
REMARK    3  A    between atoms: O2_3  and  C2_4 
REMARK    4  A    between atoms: C2_4  and  C3_5 
REMARK    5  A    between atoms: C3_5  and  C4_6 
REMARK    6  A    between atoms: C11_15  and  C12_16 
ROOT
ATOM      1  O2   11 d         -12.741 208.297 114.325  0.00  0.00    -0.310 OA
ENDROOT
BRANCH   1   2
ATOM      2  C1   11 d         -13.733 207.690 115.151  0.00  0.00     0.283 C 
ATOM      3  O1   11 d         -14.454 208.403 115.895  0.00  0.00    -0.260 OA
BRANCH   2   4
ATOM      4  C10  11 d         -13.948 206.221 115.156  0.00  0.00     0.083 C 
ATOM      5  C11  11 d         -14.529 205.455 114.207  0.00  0.00     0.017 C 
BRANCH   5   6
ATOM      6  C12  11 d         -14.950 205.884 112.852  0.00  0.00    -0.036 A 
ATOM      7  C13  11 d         -16.299 206.159 112.548  0.00  0.00     0.011 A 
ATOM      8  C14  11 d         -16.665 206.593 111.265  0.00  0.00     0.001 A 
ATOM      9  C15  11 d         -15.684 206.772 110.280  0.00  0.00     0.000 A 
ATOM     10  C16  11 d         -14.335 206.528 110.580  0.00  0.00     0.001 A 
ATOM     11  C17  11 d         -13.969 206.094 111.863  0.00  0.00     0.011 A 
ENDBRANCH   5   6
ENDBRANCH   2   4
ENDBRANCH   1   2
BRANCH   1  12
ATOM     12  C2   11 d         -11.483 207.561 114.321  0.00  0.00     0.263 C 
BRANCH  12  13
ATOM     13  C3   11 d         -10.591 207.947 113.160  0.00  0.00     0.183 C 
ATOM     14  O3   11 d         -11.054 207.896 111.989  0.00  0.00    -0.290 OA
BRANCH  13  15
ATOM     15  C4   11 d          -9.202 208.467 113.371  0.00  0.00     0.012 A 
ATOM     16  C5   11 d          -8.228 208.304 112.358  0.00  0.00     0.016 A 
ATOM     17  C6   11 d          -6.920 208.780 112.536  0.00  0.00     0.020 A 
ATOM     18  C7   11 d          -6.561 209.421 113.729  0.00  0.00     0.011 A 
ATOM     19 Br1   11 d          -4.761 210.072 113.972  0.00  0.00    -0.051 Br
ATOM     20  C8   11 d          -7.511 209.587 114.744  0.00  0.00     0.020 A 
ATOM     21  C9   11 d          -8.820 209.113 114.570  0.00  0.00     0.016 A 
ENDBRANCH  13  15
ENDBRANCH  12  13
ENDBRANCH   1  12
TORSDOF 6
ENDMDL
MODEL 4
REMARK VINA RESULT:      -7.4      2.683      4.410
REMARK  6 active torsions:
REMARK  status: ('A' for Active; 'I' for Inactive)
REMARK    1  A    between atoms: C1_1  and  O2_3 
REMARK    2  A    between atoms: C1_1  and  C10_14 
REMARK    3  A    between atoms: O2_3  and  C2_4 
REMARK    4  A    between atoms: C2_4  and  C3_5 
REMARK    5  A    between atoms: C3_5  and  C4_6 
REMARK    6  A    between atoms: C11_15  and  C12_16 
ROOT
ATOM      1  O2   11 d         -14.278 207.602 116.176  0.00  0.00    -0.310 OA
ENDROOT
BRANCH   1   2
ATOM      2  C1   11 d         -14.866 207.066 114.993  0.00  0.00     0.283 C 
ATOM      3  O1   11 d         -15.615 207.784 114.281  0.00  0.00    -0.260 OA
BRANCH   2   4
ATOM      4  C10  11 d         -14.616 205.666 114.565  0.00  0.00     0.083 C 
ATOM      5  C11  11 d         -14.531 205.176 113.308  0.00  0.00     0.017 C 
BRANCH   5   6
ATOM      6  C12  11 d         -14.510 205.957 112.048  0.00  0.00    -0.036 A 
ATOM      7  C13  11 d         -13.300 206.376 111.457  0.00  0.00     0.011 A 
ATOM      8  C14  11 d         -13.309 207.087 110.248  0.00  0.00     0.001 A 
ATOM      9  C15  11 d         -14.524 207.371 109.610  0.00  0.00     0.000 A 
ATOM     10  C16  11 d         -15.731 206.934 110.176  0.00  0.00     0.001 A 
ATOM     11  C17  11 d         -15.724 206.223 111.385  0.00  0.00     0.011 A 
ENDBRANCH   5   6
ENDBRANCH   2   4
ENDBRANCH   1   2
BRANCH   1  12
ATOM     12  C2   11 d         -13.151 206.811 116.653  0.00  0.00     0.263 C 
BRANCH  12  13
ATOM     13  C3   11 d         -11.894 207.640 116.824  0.00  0.00     0.183 C 
ATOM     14  O3   11 d         -11.572 208.030 117.978  0.00  0.00    -0.290 OA
BRANCH  13  15
ATOM     15  C4   11 d         -10.983 207.938 115.674  0.00  0.00     0.012 A 
ATOM     16  C5   11 d          -9.838 208.744 115.874  0.00  0.00     0.016 A 
ATOM     17  C6   11 d          -8.972 209.039 114.810  0.00  0.00     0.020 A 
ATOM     18  C7   11 d          -9.236 208.537 113.528  0.00  0.00     0.011 A 
ATOM     19 Br1   11 d          -8.045 208.945 112.067  0.00  0.00    -0.051 Br
ATOM     20  C8   11 d         -10.367 207.740 113.312  0.00  0.00     0.020 A 
ATOM     21  C9   11 d         -11.235 207.443 114.374  0.00  0.00     0.016 A 
ENDBRANCH  13  15
ENDBRANCH  12  13
ENDBRANCH   1  12
TORSDOF 6
ENDMDL
MODEL 5
REMARK VINA RESULT:      -7.2      3.591      6.630
REMARK  6 active torsions:
REMARK  status: ('A' for Active; 'I' for Inactive)
REMARK    1  A    between atoms: C1_1  and  O2_3 
REMARK    2  A    between atoms: C1_1  and  C10_14 
REMARK    3  A    between atoms: O2_3  and  C2_4 
REMARK    4  A    between atoms: C2_4  and  C3_5 
REMARK    5  A    between atoms: C3_5  and  C4_6 
REMARK    6  A    between atoms: C11_15  and  C12_16 
ROOT
ATOM      1  O2   11 d         -10.609 207.638 116.324  0.00  0.00    -0.310 OA
ENDROOT
BRANCH   1   2
ATOM      2  C1   11 d         -10.324 208.778 115.516  0.00  0.00     0.283 C 
ATOM      3  O1   11 d         -11.094 209.772 115.537  0.00  0.00    -0.260 OA
BRANCH   2   4
ATOM      4  C10  11 d          -9.125 208.830 114.640  0.00  0.00     0.083 C 
ATOM      5  C11  11 d          -8.989 208.371 113.377  0.00  0.00     0.017 C 
BRANCH   5   6
ATOM      6  C12  11 d         -10.063 207.844 112.501  0.00  0.00    -0.036 A 
ATOM      7  C13  11 d         -11.104 207.042 113.008  0.00  0.00     0.011 A 
ATOM      8  C14  11 d         -12.124 206.582 112.161  0.00  0.00     0.001 A 
ATOM      9  C15  11 d         -12.121 206.934 110.805  0.00  0.00     0.000 A 
ATOM     10  C16  11 d         -11.104 207.756 110.296  0.00  0.00     0.001 A 
ATOM     11  C17  11 d         -10.084 208.216 111.142  0.00  0.00     0.011 A 
ENDBRANCH   5   6
ENDBRANCH   2   4
ENDBRANCH   1   2
BRANCH   1  12
ATOM     12  C2   11 d         -11.214 207.989 117.601  0.00  0.00     0.263 C 
BRANCH  12  13
ATOM     13  C3   11 d         -12.629 207.464 117.735  0.00  0.00     0.183 C 
ATOM     14  O3   11 d         -13.142 207.375 118.882  0.00  0.00    -0.290 OA
BRANCH  13  15
ATOM     15  C4   11 d         -13.462 207.128 116.537  0.00  0.00     0.012 A 
ATOM     16  C5   11 d         -14.036 208.165 115.765  0.00  0.00     0.016 A 
ATOM     17  C6   11 d         -14.823 207.873 114.640  0.00  0.00     0.020 A 
ATOM     18  C7   11 d         -15.053 206.541 114.270  0.00  0.00     0.011 A 
ATOM     19 Br1   11 d         -16.137 206.142 112.725  0.00  0.00    -0.051 Br
ATOM     20  C8   11 d         -14.496 205.502 115.025  0.00  0.00     0.020 A 
ATOM     21  C9   11 d         -13.708 205.790 116.150  0.00  0.00     0.016 A 
ENDBRANCH  13  15
ENDBRANCH  12  13
ENDBRANCH   1  12
TORSDOF 6
ENDMDL
MODEL 6
REMARK VINA RESULT:      -7.2      4.078      6.713
REMARK  6 active torsions:
REMARK  status: ('A' for Active; 'I' for Inactive)
REMARK    1  A    between atoms: C1_1  and  O2_3 
REMARK    2  A    between atoms: C1_1  and  C10_14 
REMARK    3  A    between atoms: O2_3  and  C2_4 
REMARK    4  A    between atoms: C2_4  and  C3_5 
REMARK    5  A    between atoms: C3_5  and  C4_6 
REMARK    6  A    between atoms: C11_15  and  C12_16 
ROOT
ATOM      1  O2   11 d         -11.496 206.377 114.832  0.00  0.00    -0.310 OA
ENDROOT
BRANCH   1   2
ATOM      2  C1   11 d         -11.805 207.223 113.727  0.00  0.00     0.283 C 
ATOM      3  O1   11 d         -12.443 208.292 113.912  0.00  0.00    -0.260 OA
BRANCH   2   4
ATOM      4  C10  11 d         -11.388 206.879 112.344  0.00  0.00     0.083 C 
ATOM      5  C11  11 d         -12.155 206.443 111.321  0.00  0.00     0.017 C 
BRANCH   5   6
ATOM      6  C12  11 d         -13.635 206.356 111.292  0.00  0.00    -0.036 A 
ATOM      7  C13  11 d         -14.412 207.227 110.503  0.00  0.00     0.011 A 
ATOM      8  C14  11 d         -15.809 207.102 110.471  0.00  0.00     0.001 A 
ATOM      9  C15  11 d         -16.440 206.095 111.214  0.00  0.00     0.000 A 
ATOM     10  C16  11 d         -15.673 205.205 111.981  0.00  0.00     0.001 A 
ATOM     11  C17  11 d         -14.276 205.329 112.014  0.00  0.00     0.011 A 
ENDBRANCH   5   6
ENDBRANCH   2   4
ENDBRANCH   1   2
BRANCH   1  12
ATOM     12  C2   11 d         -12.679 205.772 115.428  0.00  0.00     0.263 C 
BRANCH  12  13
ATOM     13  C3   11 d         -12.689 205.886 116.939  0.00  0.00     0.183 C 
ATOM     14  O3   11 d         -11.891 206.685 117.497  0.00  0.00    -0.290 OA
BRANCH  13  15
ATOM     15  C4   11 d         -13.677 205.137 117.780  0.00  0.00     0.012 A 
ATOM     16  C5   11 d         -13.929 205.554 119.108  0.00  0.00     0.016 A 
ATOM     17  C6   11 d         -14.848 204.866 119.915  0.00  0.00     0.020 A 
ATOM     18  C7   11 d         -15.526 203.747 119.412  0.00  0.00     0.011 A 
ATOM     19 Br1   11 d         -16.786 202.801 120.524  0.00  0.00    -0.051 Br
ATOM     20  C8   11 d         -15.285 203.318 118.101  0.00  0.00     0.020 A 
ATOM     21  C9   11 d         -14.367 204.004 117.291  0.00  0.00     0.016 A 
ENDBRANCH  13  15
ENDBRANCH  12  13
ENDBRANCH   1  12
TORSDOF 6
ENDMDL
MODEL 7
REMARK VINA RESULT:      -7.0      3.208      4.853
REMARK  6 active torsions:
REMARK  status: ('A' for Active; 'I' for Inactive)
REMARK    1  A    between atoms: C1_1  and  O2_3 
REMARK    2  A    between atoms: C1_1  and  C10_14 
REMARK    3  A    between atoms: O2_3  and  C2_4 
REMARK    4  A    between atoms: C2_4  and  C3_5 
REMARK    5  A    between atoms: C3_5  and  C4_6 
REMARK    6  A    between atoms: C11_15  and  C12_16 
ROOT
ATOM      1  O2   11 d         -12.781 207.744 116.095  0.00  0.00    -0.310 OA
ENDROOT
BRANCH   1   2
ATOM      2  C1   11 d         -12.900 207.904 114.683  0.00  0.00     0.283 C 
ATOM      3  O1   11 d         -13.689 208.762 114.211  0.00  0.00    -0.260 OA
BRANCH   2   4
ATOM      4  C10  11 d         -12.105 207.080 113.738  0.00  0.00     0.083 C 
ATOM      5  C11  11 d         -12.542 206.357 112.683  0.00  0.00     0.017 C 
BRANCH   5   6
ATOM      6  C12  11 d         -13.914 206.344 112.120  0.00  0.00    -0.036 A 
ATOM      7  C13  11 d         -14.980 205.703 112.782  0.00  0.00     0.011 A 
ATOM      8  C14  11 d         -16.274 205.733 112.241  0.00  0.00     0.001 A 
ATOM      9  C15  11 d         -16.517 206.419 111.043  0.00  0.00     0.000 A 
ATOM     10  C16  11 d         -15.468 207.085 110.391  0.00  0.00     0.001 A 
ATOM     11  C17  11 d         -14.174 207.055 110.931  0.00  0.00     0.011 A 
ENDBRANCH   5   6
ENDBRANCH   2   4
ENDBRANCH   1   2
BRANCH   1  12
ATOM     12  C2   11 d         -11.548 207.075 116.485  0.00  0.00     0.263 C 
BRANCH  12  13
ATOM     13  C3   11 d         -10.567 208.013 117.157  0.00  0.00     0.183 C 
ATOM     14  O3   11 d         -10.774 208.363 118.350  0.00  0.00    -0.290 OA
BRANCH  13  15
ATOM     15  C4   11 d          -9.316 208.470 116.472  0.00  0.00     0.012 A 
ATOM     16  C5   11 d          -8.066 208.318 117.115  0.00  0.00     0.016 A 
ATOM     17  C6   11 d          -6.881 208.742 116.494  0.00  0.00     0.020 A 
ATOM     18  C7   11 d          -6.925 209.328 115.221  0.00  0.00     0.011 A 
ATOM     19 Br1   11 d          -5.296 209.912 114.369  0.00  0.00    -0.051 Br
ATOM     20  C8   11 d          -8.156 209.489 114.572  0.00  0.00     0.020 A 
ATOM     21  C9   11 d          -9.342 209.067 115.190  0.00  0.00     0.016 A 
ENDBRANCH  13  15
ENDBRANCH  12  13
ENDBRANCH   1  12
TORSDOF 6
ENDMDL
MODEL 8
REMARK VINA RESULT:      -7.0      2.935      4.677
REMARK  6 active torsions:
REMARK  status: ('A' for Active; 'I' for Inactive)
REMARK    1  A    between atoms: C1_1  and  O2_3 
REMARK    2  A    between atoms: C1_1  and  C10_14 
REMARK    3  A    between atoms: O2_3  and  C2_4 
REMARK    4  A    between atoms: C2_4  and  C3_5 
REMARK    5  A    between atoms: C3_5  and  C4_6 
REMARK    6  A    between atoms: C11_15  and  C12_16 
ROOT
ATOM      1  O2   11 d         -11.232 208.561 114.472  0.00  0.00    -0.310 OA
ENDROOT
BRANCH   1   2
ATOM      2  C1   11 d         -11.815 207.425 113.836  0.00  0.00     0.283 C 
ATOM      3  O1   11 d         -12.759 206.807 114.394  0.00  0.00    -0.260 OA
BRANCH   2   4
ATOM      4  C10  11 d         -11.339 206.944 112.515  0.00  0.00     0.083 C 
ATOM      5  C11  11 d         -12.065 206.430 111.498  0.00  0.00     0.017 C 
BRANCH   5   6
ATOM      6  C12  11 d         -13.544 206.372 111.401  0.00  0.00    -0.036 A 
ATOM      7  C13  11 d         -14.284 207.388 110.764  0.00  0.00     0.011 A 
ATOM      8  C14  11 d         -15.680 207.293 110.659  0.00  0.00     0.001 A 
ATOM      9  C15  11 d         -16.346 206.173 111.176  0.00  0.00     0.000 A 
ATOM     10  C16  11 d         -15.615 205.143 111.787  0.00  0.00     0.001 A 
ATOM     11  C17  11 d         -14.220 205.237 111.892  0.00  0.00     0.011 A 
ENDBRANCH   5   6
ENDBRANCH   2   4
ENDBRANCH   1   2
BRANCH   1  12
ATOM     12  C2   11 d          -9.827 208.365 114.800  0.00  0.00     0.263 C 
BRANCH  12  13
ATOM     13  C3   11 d          -8.907 209.185 113.920  0.00  0.00     0.183 C 
ATOM     14  O3   11 d          -9.335 210.260 113.422  0.00  0.00    -0.290 OA
BRANCH  13  15
ATOM     15  C4   11 d          -7.478 208.796 113.694  0.00  0.00     0.012 A 
ATOM     16  C5   11 d          -6.630 208.558 114.800  0.00  0.00     0.016 A 
ATOM     17  C6   11 d          -5.287 208.196 114.612  0.00  0.00     0.020 A 
ATOM     18  C7   11 d          -4.769 208.068 113.316  0.00  0.00     0.011 A 
ATOM     19 Br1   11 d          -2.923 207.572 113.059  0.00  0.00    -0.051 Br
ATOM     20  C8   11 d          -5.594 208.304 112.209  0.00  0.00     0.020 A 
ATOM     21  C9   11 d          -6.937 208.666 112.394  0.00  0.00     0.016 A 
ENDBRANCH  13  15
ENDBRANCH  12  13
ENDBRANCH   1  12
TORSDOF 6
ENDMDL
MODEL 9
REMARK VINA RESULT:      -6.9      1.754      2.899
REMARK  6 active torsions:
REMARK  status: ('A' for Active; 'I' for Inactive)
REMARK    1  A    between atoms: C1_1  and  O2_3 
REMARK    2  A    between atoms: C1_1  and  C10_14 
REMARK    3  A    between atoms: O2_3  and  C2_4 
REMARK    4  A    between atoms: C2_4  and  C3_5 
REMARK    5  A    between atoms: C3_5  and  C4_6 
REMARK    6  A    between atoms: C11_15  and  C12_16 
ROOT
ATOM      1  O2   11 d         -15.215 205.588 112.618  0.00  0.00    -0.310 OA
ENDROOT
BRANCH   1   2
ATOM      2  C1   11 d         -14.931 206.135 113.904  0.00  0.00     0.283 C 
ATOM      3  O1   11 d         -14.531 205.386 114.833  0.00  0.00    -0.260 OA
BRANCH   2   4
ATOM      4  C10  11 d         -15.090 207.585 114.185  0.00  0.00     0.083 C 
ATOM      5  C11  11 d         -14.564 208.305 115.199  0.00  0.00     0.017 C 
BRANCH   5   6
ATOM      6  C12  11 d         -13.562 207.846 116.191  0.00  0.00    -0.036 A 
ATOM      7  C13  11 d         -12.179 207.908 115.930  0.00  0.00     0.011 A 
ATOM      8  C14  11 d         -11.253 207.494 116.899  0.00  0.00     0.001 A 
ATOM      9  C15  11 d         -11.701 207.031 118.144  0.00  0.00     0.000 A 
ATOM     10  C16  11 d         -13.075 206.991 118.424  0.00  0.00     0.001 A 
ATOM     11  C17  11 d         -14.002 207.404 117.456  0.00  0.00     0.011 A 
ENDBRANCH   5   6
ENDBRANCH   2   4
ENDBRANCH   1   2
BRANCH   1  12
ATOM     12  C2   11 d         -14.017 205.151 111.914  0.00  0.00     0.263 C 
BRANCH  12  13
ATOM     13  C3   11 d         -13.448 206.229 111.014  0.00  0.00     0.183 C 
ATOM     14  O3   11 d         -14.117 206.607 110.015  0.00  0.00    -0.290 OA
BRANCH  13  15
ATOM     15  C4   11 d         -12.154 206.915 111.325  0.00  0.00     0.012 A 
ATOM     16  C5   11 d         -11.406 207.512 110.284  0.00  0.00     0.016 A 
ATOM     17  C6   11 d         -10.188 208.157 110.551  0.00  0.00     0.020 A 
ATOM     18  C7   11 d          -9.696 208.213 111.863  0.00  0.00     0.011 A 
ATOM     19 Br1   11 d          -8.022 209.098 112.228  0.00  0.00    -0.051 Br
ATOM     20  C8   11 d         -10.422 207.624 112.905  0.00  0.00     0.020 A 
ATOM     21  C9   11 d         -11.640 206.978 112.641  0.00  0.00     0.016 A 
ENDBRANCH  13  15
ENDBRANCH  12  13
ENDBRANCH   1  12
TORSDOF 6
ENDMDL
MODEL 10
REMARK VINA RESULT:      -6.7      5.105      8.075
REMARK  6 active torsions:
REMARK  status: ('A' for Active; 'I' for Inactive)
REMARK    1  A    between atoms: C1_1  and  O2_3 
REMARK    2  A    between atoms: C1_1  and  C10_14 
REMARK    3  A    between atoms: O2_3  and  C2_4 
REMARK    4  A    between atoms: C2_4  and  C3_5 
REMARK    5  A    between atoms: C3_5  and  C4_6 
REMARK    6  A    between atoms: C11_15  and  C12_16 
ROOT
ATOM      1  O2   11 d          -8.208 209.089 115.058  0.00  0.00    -0.310 OA
ENDROOT
BRANCH   1   2
ATOM      2  C1   11 d          -6.875 209.568 115.228  0.00  0.00     0.283 C 
ATOM      3  O1   11 d          -6.576 210.737 114.874  0.00  0.00    -0.260 OA
BRANCH   2   4
ATOM      4  C10  11 d          -5.814 208.717 115.825  0.00  0.00     0.083 C 
ATOM      5  C11  11 d          -5.323 208.747 117.083  0.00  0.00     0.017 C 
BRANCH   5   6
ATOM      6  C12  11 d          -5.844 209.539 118.223  0.00  0.00    -0.036 A 
ATOM      7  C13  11 d          -6.759 208.994 119.146  0.00  0.00     0.011 A 
ATOM      8  C14  11 d          -7.212 209.757 120.233  0.00  0.00     0.001 A 
ATOM      9  C15  11 d          -6.743 211.065 120.416  0.00  0.00     0.000 A 
ATOM     10  C16  11 d          -5.811 211.607 119.517  0.00  0.00     0.001 A 
ATOM     11  C17  11 d          -5.357 210.845 118.431  0.00  0.00     0.011 A 
ENDBRANCH   5   6
ENDBRANCH   2   4
ENDBRANCH   1   2
BRANCH   1  12
ATOM     12  C2   11 d          -8.874 209.676 113.903  0.00  0.00     0.263 C 
BRANCH  12  13
ATOM     13  C3   11 d          -8.906 208.738 112.715  0.00  0.00     0.183 C 
ATOM     14  O3   11 d          -7.845 208.537 112.065  0.00  0.00    -0.290 OA
BRANCH  13  15
ATOM     15  C4   11 d         -10.142 207.978 112.341  0.00  0.00     0.012 A 
ATOM     16  C5   11 d         -10.530 207.890 110.984  0.00  0.00     0.016 A 
ATOM     17  C6   11 d         -11.686 207.187 110.611  0.00  0.00     0.020 A 
ATOM     18  C7   11 d         -12.476 206.564 111.588  0.00  0.00     0.011 A 
ATOM     19 Br1   11 d         -14.065 205.600 111.074  0.00  0.00    -0.051 Br
ATOM     20  C8   11 d         -12.108 206.646 112.937  0.00  0.00     0.020 A 
ATOM     21  C9   11 d         -10.953 207.348 113.313  0.00  0.00     0.016 A 
ENDBRANCH  13  15
ENDBRANCH  12  13
ENDBRANCH   1  12
TORSDOF 6
ENDMDL
