MODEL 1
REMARK VINA RESULT:      -9.2      0.000      0.000
REMARK  3 active torsions:
REMARK  status: ('A' for Active; 'I' for Inactive)
REMARK    1  A    between atoms: C3_3  and  N1_4 
REMARK    2  A    between atoms: N1_4  and  C4_5 
REMARK    3  A    between atoms: C17_19  and  N3_20 
ROOT
ATOM      1  C1   11 d         -10.364 207.879 115.546  0.00  0.00    -0.019 A 
ATOM      2  C2   11 d         -11.230 207.238 114.663  0.00  0.00     0.073 A 
ATOM      3  C3   11 d         -12.491 206.513 115.078  0.00  0.00     0.238 C 
ATOM      4  C11  11 d         -12.502 206.348 116.629  0.00  0.00     0.040 C 
ATOM      5  C12  11 d         -12.053 207.620 117.382  0.00  0.00     0.007 C 
ATOM      6  C13  11 d         -10.614 208.026 117.020  0.00  0.00     0.042 C 
ATOM      7  N2   11 d         -10.746 207.316 113.399  0.00  0.00    -0.250 NA
ATOM      8  C14  11 d          -9.612 208.049 113.463  0.00  0.00     0.068 A 
ATOM      9  C15  11 d          -9.367 208.430 114.768  0.00  0.00     0.003 A 
ATOM     10  C16  11 d          -8.259 209.214 115.113  0.00  0.00     0.050 A 
ATOM     11  C17  11 d          -7.362 209.621 114.088  0.00  0.00     0.103 A 
ATOM     12  C18  11 d          -7.623 209.207 112.748  0.00  0.00     0.038 A 
ATOM     13  C19  11 d          -8.749 208.421 112.430  0.00  0.00     0.035 A 
ENDROOT
BRANCH   3  14
ATOM     14  N1   11 d         -13.715 207.222 114.537  0.00  0.00    -0.061 N 
ATOM     15  H2   11 d         -14.443 207.345 115.314  0.00  0.00     0.278 HD
ATOM     16  H3   11 d         -13.436 208.219 114.249  0.00  0.00     0.278 HD
BRANCH  14  17
ATOM     17  C4   11 d         -14.383 206.586 113.338  0.00  0.00     0.186 C 
ATOM     18  C5   11 d         -14.087 207.440 112.073  0.00  0.00     0.033 C 
ATOM     19  C6   11 d         -14.388 206.737 110.739  0.00  0.00     0.002 C 
ATOM     20  C7   11 d         -15.827 206.888 110.226  0.00  0.00     0.000 C 
ATOM     21  C8   11 d         -16.955 206.769 111.263  0.00  0.00     0.000 C 
ATOM     22  C9   11 d         -16.701 205.766 112.395  0.00  0.00     0.002 C 
ATOM     23  C10  11 d         -15.899 206.356 113.566  0.00  0.00     0.033 C 
ENDBRANCH  14  17
ENDBRANCH   3  14
BRANCH  11  24
ATOM     24  N3   11 d          -6.244 210.403 114.386  0.00  0.00    -0.116 N 
ATOM     25  O1   11 d          -5.218 210.135 113.953  0.00  0.00    -0.532 OA
ATOM     26  O2   11 d          -6.299 211.294 115.278  0.00  0.00    -0.532 OA
ENDBRANCH  11  24
TORSDOF 3
ENDMDL
MODEL 2
REMARK VINA RESULT:      -9.2      2.581      4.182
REMARK  3 active torsions:
REMARK  status: ('A' for Active; 'I' for Inactive)
REMARK    1  A    between atoms: C3_3  and  N1_4 
REMARK    2  A    between atoms: N1_4  and  C4_5 
REMARK    3  A    between atoms: C17_19  and  N3_20 
ROOT
ATOM      1  C1   11 d         -10.347 208.190 114.407  0.00  0.00    -0.019 A 
ATOM      2  C2   11 d         -11.481 207.845 113.674  0.00  0.00     0.073 A 
ATOM      3  C3   11 d         -11.552 207.842 112.163  0.00  0.00     0.238 C 
ATOM      4  C11  11 d         -10.289 208.555 111.587  0.00  0.00     0.040 C 
ATOM      5  C12  11 d          -8.982 208.153 112.303  0.00  0.00     0.007 C 
ATOM      6  C13  11 d          -9.010 208.510 113.800  0.00  0.00     0.042 C 
ATOM      7  N2   11 d         -12.509 207.568 114.512  0.00  0.00    -0.250 NA
ATOM      8  C14  11 d         -12.026 207.679 115.769  0.00  0.00     0.068 A 
ATOM      9  C15  11 d         -10.691 208.035 115.734  0.00  0.00     0.003 A 
ATOM     10  C16  11 d          -9.940 208.202 116.904  0.00  0.00     0.050 A 
ATOM     11  C17  11 d         -10.575 208.003 118.160  0.00  0.00     0.103 A 
ATOM     12  C18  11 d         -11.956 207.649 118.178  0.00  0.00     0.038 A 
ATOM     13  C19  11 d         -12.687 207.484 116.983  0.00  0.00     0.035 A 
ENDROOT
BRANCH   3  14
ATOM     14  N1   11 d         -11.741 206.433 111.641  0.00  0.00    -0.061 N 
ATOM     15  H2   11 d         -11.038 206.233 110.858  0.00  0.00     0.278 HD
ATOM     16  H3   11 d         -11.498 205.741 112.426  0.00  0.00     0.278 HD
BRANCH  14  17
ATOM     17  C4   11 d         -13.129 206.079 111.155  0.00  0.00     0.186 C 
ATOM     18  C5   11 d         -13.887 207.381 110.772  0.00  0.00     0.033 C 
ATOM     19  C6   11 d         -15.157 207.161 109.933  0.00  0.00     0.002 C 
ATOM     20  C7   11 d         -16.442 206.919 110.737  0.00  0.00     0.000 C 
ATOM     21  C8   11 d         -16.338 205.999 111.962  0.00  0.00     0.000 C 
ATOM     22  C9   11 d         -15.350 204.833 111.823  0.00  0.00     0.002 C 
ATOM     23  C10  11 d         -13.904 205.212 112.179  0.00  0.00     0.033 C 
ENDBRANCH  14  17
ENDBRANCH   3  14
BRANCH  11  24
ATOM     24  N3   11 d          -9.865 208.159 119.353  0.00  0.00    -0.116 N 
ATOM     25  O1   11 d          -9.366 209.158 119.604  0.00  0.00    -0.532 OA
ATOM     26  O2   11 d          -9.599 207.162 120.080  0.00  0.00    -0.532 OA
ENDBRANCH  11  24
TORSDOF 3
ENDMDL
MODEL 3
REMARK VINA RESULT:      -8.6      3.986      8.216
REMARK  3 active torsions:
REMARK  status: ('A' for Active; 'I' for Inactive)
REMARK    1  A    between atoms: C3_3  and  N1_4 
REMARK    2  A    between atoms: N1_4  and  C4_5 
REMARK    3  A    between atoms: C17_19  and  N3_20 
ROOT
ATOM      1  C1   11 d         -11.468 207.427 112.323  0.00  0.00    -0.019 A 
ATOM      2  C2   11 d         -10.584 207.659 113.375  0.00  0.00     0.073 A 
ATOM      3  C3   11 d          -9.166 208.158 113.205  0.00  0.00     0.238 C 
ATOM      4  C11  11 d          -8.771 208.083 111.698  0.00  0.00     0.040 C 
ATOM      5  C12  11 d          -9.887 208.574 110.749  0.00  0.00     0.007 C 
ATOM      6  C13  11 d         -11.169 207.734 110.883  0.00  0.00     0.042 C 
ATOM      7  N2   11 d         -11.165 207.323 114.552  0.00  0.00    -0.250 NA
ATOM      8  C14  11 d         -12.427 206.933 114.264  0.00  0.00     0.068 A 
ATOM      9  C15  11 d         -12.648 207.012 112.903  0.00  0.00     0.003 A 
ATOM     10  C16  11 d         -13.884 206.679 112.335  0.00  0.00     0.050 A 
ATOM     11  C17  11 d         -14.935 206.243 113.187  0.00  0.00     0.103 A 
ATOM     12  C18  11 d         -14.685 206.155 114.588  0.00  0.00     0.038 A 
ATOM     13  C19  11 d         -13.431 206.500 115.133  0.00  0.00     0.035 A 
ENDROOT
BRANCH   3  14
ATOM     14  N1   11 d          -9.014 209.542 113.801  0.00  0.00    -0.061 N 
ATOM     15  H2   11 d          -8.980 210.277 113.021  0.00  0.00     0.278 HD
ATOM     16  H3   11 d          -9.897 209.771 114.370  0.00  0.00     0.278 HD
BRANCH  14  17
ATOM     17  C4   11 d          -7.831 209.750 114.720  0.00  0.00     0.186 C 
ATOM     18  C5   11 d          -6.524 209.779 113.878  0.00  0.00     0.033 C 
ATOM     19  C6   11 d          -5.297 210.336 114.617  0.00  0.00     0.002 C 
ATOM     20  C7   11 d          -4.488 209.306 115.418  0.00  0.00     0.000 C 
ATOM     21  C8   11 d          -5.282 208.267 116.223  0.00  0.00     0.000 C 
ATOM     22  C9   11 d          -6.596 208.774 116.831  0.00  0.00     0.002 C 
ATOM     23  C10  11 d          -7.786 208.702 115.861  0.00  0.00     0.033 C 
ENDBRANCH  14  17
ENDBRANCH   3  14
BRANCH  11  24
ATOM     24  N3   11 d         -16.184 205.900 112.665  0.00  0.00    -0.116 N 
ATOM     25  O1   11 d         -17.094 205.805 113.353  0.00  0.00    -0.532 OA
ATOM     26  O2   11 d         -16.297 205.504 111.471  0.00  0.00    -0.532 OA
ENDBRANCH  11  24
TORSDOF 3
ENDMDL
MODEL 4
REMARK VINA RESULT:      -8.5      3.900      7.705
REMARK  3 active torsions:
REMARK  status: ('A' for Active; 'I' for Inactive)
REMARK    1  A    between atoms: C3_3  and  N1_4 
REMARK    2  A    between atoms: N1_4  and  C4_5 
REMARK    3  A    between atoms: C17_19  and  N3_20 
ROOT
ATOM      1  C1   11 d         -11.944 207.394 115.008  0.00  0.00    -0.019 A 
ATOM      2  C2   11 d         -10.780 208.125 114.781  0.00  0.00     0.073 A 
ATOM      3  C3   11 d          -9.966 208.794 115.867  0.00  0.00     0.238 C 
ATOM      4  C11  11 d         -10.780 208.787 117.198  0.00  0.00     0.040 C 
ATOM      5  C12  11 d         -11.487 207.441 117.474  0.00  0.00     0.007 C 
ATOM      6  C13  11 d         -12.498 207.084 116.370  0.00  0.00     0.042 C 
ATOM      7  N2   11 d         -10.524 208.189 113.452  0.00  0.00    -0.250 NA
ATOM      8  C14  11 d         -11.480 207.459 112.837  0.00  0.00     0.068 A 
ATOM      9  C15  11 d         -12.353 206.937 113.772  0.00  0.00     0.003 A 
ATOM     10  C16  11 d         -13.432 206.124 113.404  0.00  0.00     0.050 A 
ATOM     11  C17  11 d         -13.633 205.837 112.026  0.00  0.00     0.103 A 
ATOM     12  C18  11 d         -12.732 206.395 111.073  0.00  0.00     0.038 A 
ATOM     13  C19  11 d         -11.651 207.207 111.474  0.00  0.00     0.035 A 
ENDROOT
BRANCH   3  14
ATOM     14  N1   11 d          -8.604 208.144 115.989  0.00  0.00    -0.061 N 
ATOM     15  H2   11 d          -8.465 207.763 116.980  0.00  0.00     0.278 HD
ATOM     16  H3   11 d          -8.576 207.283 115.346  0.00  0.00     0.278 HD
BRANCH  14  17
ATOM     17  C4   11 d          -7.416 209.006 115.625  0.00  0.00     0.186 C 
ATOM     18  C5   11 d          -6.827 208.523 114.269  0.00  0.00     0.033 C 
ATOM     19  C6   11 d          -5.858 209.513 113.602  0.00  0.00     0.002 C 
ATOM     20  C7   11 d          -4.388 209.382 114.027  0.00  0.00     0.000 C 
ATOM     21  C8   11 d          -4.110 209.148 115.519  0.00  0.00     0.000 C 
ATOM     22  C9   11 d          -5.074 209.852 116.483  0.00  0.00     0.002 C 
ATOM     23  C10  11 d          -6.357 209.051 116.756  0.00  0.00     0.033 C 
ENDBRANCH  14  17
ENDBRANCH   3  14
BRANCH  11  24
ATOM     24  N3   11 d         -14.697 205.032 111.612  0.00  0.00    -0.116 N 
ATOM     25  O1   11 d         -14.508 203.963 111.248  0.00  0.00    -0.532 OA
ATOM     26  O2   11 d         -15.850 205.520 111.448  0.00  0.00    -0.532 OA
ENDBRANCH  11  24
TORSDOF 3
ENDMDL
MODEL 5
REMARK VINA RESULT:      -8.4      4.474      7.573
REMARK  3 active torsions:
REMARK  status: ('A' for Active; 'I' for Inactive)
REMARK    1  A    between atoms: C3_3  and  N1_4 
REMARK    2  A    between atoms: N1_4  and  C4_5 
REMARK    3  A    between atoms: C17_19  and  N3_20 
ROOT
ATOM      1  C1   11 d         -13.372 205.913 114.598  0.00  0.00    -0.019 A 
ATOM      2  C2   11 d         -14.282 205.534 115.582  0.00  0.00     0.073 A 
ATOM      3  C3   11 d         -13.903 205.159 116.998  0.00  0.00     0.238 C 
ATOM      4  C11  11 d         -12.356 204.978 117.085  0.00  0.00     0.040 C 
ATOM      5  C12  11 d         -11.570 206.077 116.336  0.00  0.00     0.007 C 
ATOM      6  C13  11 d         -11.899 206.098 114.833  0.00  0.00     0.042 C 
ATOM      7  N2   11 d         -15.535 205.503 115.068  0.00  0.00    -0.250 NA
ATOM      8  C14  11 d         -15.438 205.912 113.784  0.00  0.00     0.068 A 
ATOM      9  C15  11 d         -14.121 206.196 113.475  0.00  0.00     0.003 A 
ATOM     10  C16  11 d         -13.742 206.657 112.209  0.00  0.00     0.050 A 
ATOM     11  C17  11 d         -14.743 206.831 111.215  0.00  0.00     0.103 A 
ATOM     12  C18  11 d         -16.095 206.521 111.545  0.00  0.00     0.038 A 
ATOM     13  C19  11 d         -16.448 206.061 112.831  0.00  0.00     0.035 A 
ENDROOT
BRANCH   3  14
ATOM     14  N1   11 d         -14.450 206.171 117.982  0.00  0.00    -0.061 N 
ATOM     15  H2   11 d         -13.945 207.109 117.865  0.00  0.00     0.278 HD
ATOM     16  H3   11 d         -15.477 206.368 117.737  0.00  0.00     0.278 HD
BRANCH  14  17
ATOM     17  C4   11 d         -14.412 205.775 119.441  0.00  0.00     0.186 C 
ATOM     18  C5   11 d         -15.183 204.438 119.631  0.00  0.00     0.033 C 
ATOM     19  C6   11 d         -14.926 203.734 120.973  0.00  0.00     0.002 C 
ATOM     20  C7   11 d         -15.844 204.163 122.127  0.00  0.00     0.000 C 
ATOM     21  C8   11 d         -16.148 205.662 122.257  0.00  0.00     0.000 C 
ATOM     22  C9   11 d         -14.997 206.600 121.873  0.00  0.00     0.002 C 
ATOM     23  C10  11 d         -14.933 206.904 120.368  0.00  0.00     0.033 C 
ENDBRANCH  14  17
ENDBRANCH   3  14
BRANCH  11  24
ATOM     24  N3   11 d         -14.411 207.288 109.937  0.00  0.00    -0.116 N 
ATOM     25  O1   11 d         -15.227 207.462 109.153  0.00  0.00    -0.532 OA
ATOM     26  O2   11 d         -13.206 207.335 109.562  0.00  0.00    -0.532 OA
ENDBRANCH  11  24
TORSDOF 3
ENDMDL
MODEL 6
REMARK VINA RESULT:      -8.4      3.982      8.261
REMARK  3 active torsions:
REMARK  status: ('A' for Active; 'I' for Inactive)
REMARK    1  A    between atoms: C3_3  and  N1_4 
REMARK    2  A    between atoms: N1_4  and  C4_5 
REMARK    3  A    between atoms: C17_19  and  N3_20 
ROOT
ATOM      1  C1   11 d         -10.256 208.449 113.747  0.00  0.00    -0.019 A 
ATOM      2  C2   11 d          -9.353 208.544 112.690  0.00  0.00     0.073 A 
ATOM      3  C3   11 d          -7.971 209.150 112.800  0.00  0.00     0.238 C 
ATOM      4  C11  11 d          -7.844 209.897 114.163  0.00  0.00     0.040 C 
ATOM      5  C12  11 d          -8.443 209.110 115.349  0.00  0.00     0.007 C 
ATOM      6  C13  11 d          -9.947 208.844 115.164  0.00  0.00     0.042 C 
ATOM      7  N2   11 d          -9.916 208.066 111.554  0.00  0.00    -0.250 NA
ATOM      8  C14  11 d         -11.145 207.617 111.890  0.00  0.00     0.068 A 
ATOM      9  C15  11 d         -11.371 207.816 113.239  0.00  0.00     0.003 A 
ATOM     10  C16  11 d         -12.567 207.425 113.854  0.00  0.00     0.050 A 
ATOM     11  C17  11 d         -13.575 206.811 113.062  0.00  0.00     0.103 A 
ATOM     12  C18  11 d         -13.331 206.624 111.670  0.00  0.00     0.038 A 
ATOM     13  C19  11 d         -12.115 207.025 111.078  0.00  0.00     0.035 A 
ENDROOT
BRANCH   3  14
ATOM     14  N1   11 d          -6.908 208.092 112.589  0.00  0.00    -0.061 N 
ATOM     15  H2   11 d          -7.200 207.177 113.063  0.00  0.00     0.278 HD
ATOM     16  H3   11 d          -6.853 207.865 111.540  0.00  0.00     0.278 HD
BRANCH  14  17
ATOM     17  C4   11 d          -5.508 208.450 113.037  0.00  0.00     0.186 C 
ATOM     18  C5   11 d          -4.502 208.108 111.902  0.00  0.00     0.033 C 
ATOM     19  C6   11 d          -3.110 208.741 112.065  0.00  0.00     0.002 C 
ATOM     20  C7   11 d          -2.108 207.922 112.891  0.00  0.00     0.000 C 
ATOM     21  C8   11 d          -2.639 207.245 114.164  0.00  0.00     0.000 C 
ATOM     22  C9   11 d          -3.718 208.029 114.921  0.00  0.00     0.002 C 
ATOM     23  C10  11 d          -5.138 207.786 114.388  0.00  0.00     0.033 C 
ENDBRANCH  14  17
ENDBRANCH   3  14
BRANCH  11  24
ATOM     24  N3   11 d         -14.784 206.405 113.633  0.00  0.00    -0.116 N 
ATOM     25  O1   11 d         -14.827 205.474 114.299  0.00  0.00    -0.532 OA
ATOM     26  O2   11 d         -15.874 206.933 113.277  0.00  0.00    -0.532 OA
ENDBRANCH  11  24
TORSDOF 3
ENDMDL
MODEL 7
REMARK VINA RESULT:      -8.1      4.850      7.083
REMARK  3 active torsions:
REMARK  status: ('A' for Active; 'I' for Inactive)
REMARK    1  A    between atoms: C3_3  and  N1_4 
REMARK    2  A    between atoms: N1_4  and  C4_5 
REMARK    3  A    between atoms: C17_19  and  N3_20 
ROOT
ATOM      1  C1   11 d         -13.499 206.289 117.196  0.00  0.00    -0.019 A 
ATOM      2  C2   11 d         -13.664 206.076 115.829  0.00  0.00     0.073 A 
ATOM      3  C3   11 d         -13.057 206.944 114.750  0.00  0.00     0.238 C 
ATOM      4  C11  11 d         -12.489 208.246 115.396  0.00  0.00     0.040 C 
ATOM      5  C12  11 d         -11.720 207.990 116.710  0.00  0.00     0.007 C 
ATOM      6  C13  11 d         -12.615 207.351 117.787  0.00  0.00     0.042 C 
ATOM      7  N2   11 d         -14.484 205.017 115.621  0.00  0.00    -0.250 NA
ATOM      8  C14  11 d         -14.796 204.522 116.839  0.00  0.00     0.068 A 
ATOM      9  C15  11 d         -14.182 205.270 117.826  0.00  0.00     0.003 A 
ATOM     10  C16  11 d         -14.326 204.961 119.184  0.00  0.00     0.050 A 
ATOM     11  C17  11 d         -15.132 203.849 119.552  0.00  0.00     0.103 A 
ATOM     12  C18  11 d         -15.768 203.096 118.522  0.00  0.00     0.038 A 
ATOM     13  C19  11 d         -15.602 203.428 117.161  0.00  0.00     0.035 A 
ENDROOT
BRANCH   3  14
ATOM     14  N1   11 d         -12.029 206.166 113.955  0.00  0.00    -0.061 N 
ATOM     15  H2   11 d         -11.050 206.563 114.132  0.00  0.00     0.278 HD
ATOM     16  H3   11 d         -11.999 205.158 114.327  0.00  0.00     0.278 HD
BRANCH  14  17
ATOM     17  C4   11 d         -12.261 206.080 112.463  0.00  0.00     0.186 C 
ATOM     18  C5   11 d         -11.628 207.320 111.772  0.00  0.00     0.033 C 
ATOM     19  C6   11 d         -11.467 207.193 110.248  0.00  0.00     0.002 C 
ATOM     20  C7   11 d         -12.683 207.635 109.419  0.00  0.00     0.000 C 
ATOM     21  C8   11 d         -14.068 207.222 109.937  0.00  0.00     0.000 C 
ATOM     22  C9   11 d         -14.130 205.851 110.622  0.00  0.00     0.002 C 
ATOM     23  C10  11 d         -13.760 205.896 112.113  0.00  0.00     0.033 C 
ENDBRANCH  14  17
ENDBRANCH   3  14
BRANCH  11  24
ATOM     24  N3   11 d         -15.305 203.505 120.895  0.00  0.00    -0.116 N 
ATOM     25  O1   11 d         -16.144 202.791 121.207  0.00  0.00    -0.532 OA
ATOM     26  O2   11 d         -14.673 204.113 121.803  0.00  0.00    -0.532 OA
ENDBRANCH  11  24
TORSDOF 3
ENDMDL
MODEL 8
REMARK VINA RESULT:      -8.0      3.941      7.723
REMARK  3 active torsions:
REMARK  status: ('A' for Active; 'I' for Inactive)
REMARK    1  A    between atoms: C3_3  and  N1_4 
REMARK    2  A    between atoms: N1_4  and  C4_5 
REMARK    3  A    between atoms: C17_19  and  N3_20 
ROOT
ATOM      1  C1   11 d         -11.887 207.686 115.444  0.00  0.00    -0.019 A 
ATOM      2  C2   11 d         -10.555 208.070 115.579  0.00  0.00     0.073 A 
ATOM      3  C3   11 d          -9.893 208.407 116.896  0.00  0.00     0.238 C 
ATOM      4  C11  11 d         -10.985 208.544 118.001  0.00  0.00     0.040 C 
ATOM      5  C12  11 d         -12.063 207.440 117.934  0.00  0.00     0.007 C 
ATOM      6  C13  11 d         -12.824 207.456 116.596  0.00  0.00     0.042 C 
ATOM      7  N2   11 d          -9.968 208.145 114.360  0.00  0.00    -0.250 NA
ATOM      8  C14  11 d         -10.897 207.758 113.457  0.00  0.00     0.068 A 
ATOM      9  C15  11 d         -12.079 207.445 114.099  0.00  0.00     0.003 A 
ATOM     10  C16  11 d         -13.205 206.998 113.397  0.00  0.00     0.050 A 
ATOM     11  C17  11 d         -13.125 206.871 111.983  0.00  0.00     0.103 A 
ATOM     12  C18  11 d         -11.901 207.211 111.335  0.00  0.00     0.038 A 
ATOM     13  C19  11 d         -10.782 207.655 112.069  0.00  0.00     0.035 A 
ENDROOT
BRANCH   3  14
ATOM     14  N1   11 d          -8.821 207.391 117.229  0.00  0.00    -0.061 N 
ATOM     15  H2   11 d          -9.101 206.832 118.099  0.00  0.00     0.278 HD
ATOM     16  H3   11 d          -8.770 206.672 116.432  0.00  0.00     0.278 HD
BRANCH  14  17
ATOM     17  C4   11 d          -7.422 207.932 117.425  0.00  0.00     0.186 C 
ATOM     18  C5   11 d          -7.354 208.706 118.772  0.00  0.00     0.033 C 
ATOM     19  C6   11 d          -5.930 208.997 119.274  0.00  0.00     0.002 C 
ATOM     20  C7   11 d          -5.303 210.299 118.755  0.00  0.00     0.000 C 
ATOM     21  C8   11 d          -5.524 210.640 117.274  0.00  0.00     0.000 C 
ATOM     22  C9   11 d          -5.562 209.436 116.324  0.00  0.00     0.002 C 
ATOM     23  C10  11 d          -6.949 208.784 116.219  0.00  0.00     0.033 C 
ENDBRANCH  14  17
ENDBRANCH   3  14
BRANCH  11  24
ATOM     24  N3   11 d         -14.223 206.430 111.241  0.00  0.00    -0.116 N 
ATOM     25  O1   11 d         -14.234 205.378 110.790  0.00  0.00    -0.532 OA
ATOM     26  O2   11 d         -15.132 207.235 110.893  0.00  0.00    -0.532 OA
ENDBRANCH  11  24
TORSDOF 3
ENDMDL
MODEL 9
REMARK VINA RESULT:      -7.9      2.428      4.129
REMARK  3 active torsions:
REMARK  status: ('A' for Active; 'I' for Inactive)
REMARK    1  A    between atoms: C3_3  and  N1_4 
REMARK    2  A    between atoms: N1_4  and  C4_5 
REMARK    3  A    between atoms: C17_19  and  N3_20 
ROOT
ATOM      1  C1   11 d          -8.665 208.609 114.876  0.00  0.00    -0.019 A 
ATOM      2  C2   11 d          -9.996 208.496 114.481  0.00  0.00     0.073 A 
ATOM      3  C3   11 d         -10.469 208.558 113.045  0.00  0.00     0.238 C 
ATOM      4  C11  11 d          -9.300 209.056 112.140  0.00  0.00     0.040 C 
ATOM      5  C12  11 d          -7.942 208.404 112.483  0.00  0.00     0.007 C 
ATOM      6  C13  11 d          -7.505 208.709 113.927  0.00  0.00     0.042 C 
ATOM      7  N2   11 d         -10.795 208.377 115.569  0.00  0.00    -0.250 NA
ATOM      8  C14  11 d          -9.981 208.357 116.648  0.00  0.00     0.068 A 
ATOM      9  C15  11 d          -8.663 208.472 116.249  0.00  0.00     0.003 A 
ATOM     10  C16  11 d          -7.609 208.463 117.170  0.00  0.00     0.050 A 
ATOM     11  C17  11 d          -7.910 208.336 118.554  0.00  0.00     0.103 A 
ATOM     12  C18  11 d          -9.276 208.232 118.949  0.00  0.00     0.038 A 
ATOM     13  C19  11 d         -10.317 208.240 117.998  0.00  0.00     0.035 A 
ENDROOT
BRANCH   3  14
ATOM     14  N1   11 d         -11.041 207.224 112.614  0.00  0.00    -0.061 N 
ATOM     15  H2   11 d         -10.510 206.854 111.760  0.00  0.00     0.278 HD
ATOM     16  H3   11 d         -10.862 206.506 113.394  0.00  0.00     0.278 HD
BRANCH  14  17
ATOM     17  C4   11 d         -12.524 207.194 112.319  0.00  0.00     0.186 C 
ATOM     18  C5   11 d         -13.244 206.329 113.392  0.00  0.00     0.033 C 
ATOM     19  C6   11 d         -14.771 206.501 113.435  0.00  0.00     0.002 C 
ATOM     20  C7   11 d         -15.563 205.583 112.491  0.00  0.00     0.000 C 
ATOM     21  C8   11 d         -14.998 205.379 111.078  0.00  0.00     0.000 C 
ATOM     22  C9   11 d         -14.301 206.602 110.468  0.00  0.00     0.002 C 
ATOM     23  C10  11 d         -12.823 206.728 110.872  0.00  0.00     0.033 C 
ENDBRANCH  14  17
ENDBRANCH   3  14
BRANCH  11  24
ATOM     24  N3   11 d          -6.891 208.323 119.509  0.00  0.00    -0.116 N 
ATOM     25  O1   11 d          -5.794 208.405 119.189  0.00  0.00    -0.532 OA
ATOM     26  O2   11 d          -7.138 208.030 120.712  0.00  0.00    -0.532 OA
ENDBRANCH  11  24
TORSDOF 3
ENDMDL
MODEL 10
REMARK VINA RESULT:      -7.8      4.206      7.797
REMARK  3 active torsions:
REMARK  status: ('A' for Active; 'I' for Inactive)
REMARK    1  A    between atoms: C3_3  and  N1_4 
REMARK    2  A    between atoms: N1_4  and  C4_5 
REMARK    3  A    between atoms: C17_19  and  N3_20 
ROOT
ATOM      1  C1   11 d         -12.554 206.927 115.396  0.00  0.00    -0.019 A 
ATOM      2  C2   11 d         -11.373 207.597 115.709  0.00  0.00     0.073 A 
ATOM      3  C3   11 d         -10.932 207.941 117.114  0.00  0.00     0.238 C 
ATOM      4  C11  11 d         -12.119 207.701 118.098  0.00  0.00     0.040 C 
ATOM      5  C12  11 d         -12.884 206.388 117.824  0.00  0.00     0.007 C 
ATOM      6  C13  11 d         -13.505 206.366 116.416  0.00  0.00     0.042 C 
ATOM      7  N2   11 d         -10.716 207.934 114.572  0.00  0.00    -0.250 NA
ATOM      8  C14  11 d         -11.439 207.437 113.545  0.00  0.00     0.068 A 
ATOM      9  C15  11 d         -12.562 206.790 114.024  0.00  0.00     0.003 A 
ATOM     10  C16  11 d         -13.478 206.168 113.168  0.00  0.00     0.050 A 
ATOM     11  C17  11 d         -13.245 206.211 111.766  0.00  0.00     0.103 A 
ATOM     12  C18  11 d         -12.089 206.894 111.287  0.00  0.00     0.038 A 
ATOM     13  C19  11 d         -11.180 207.509 112.174  0.00  0.00     0.035 A 
ENDROOT
BRANCH   3  14
ATOM     14  N1   11 d          -9.679 207.175 117.482  0.00  0.00    -0.061 N 
ATOM     15  H2   11 d          -9.921 206.368 118.145  0.00  0.00     0.278 HD
ATOM     16  H3   11 d          -9.289 206.708 116.595  0.00  0.00     0.278 HD
BRANCH  14  17
ATOM     17  C4   11 d          -8.552 207.983 118.086  0.00  0.00     0.186 C 
ATOM     18  C5   11 d          -7.255 207.126 118.103  0.00  0.00     0.033 C 
ATOM     19  C6   11 d          -5.963 207.922 118.348  0.00  0.00     0.002 C 
ATOM     20  C7   11 d          -5.581 208.118 119.822  0.00  0.00     0.000 C 
ATOM     21  C8   11 d          -6.716 208.456 120.799  0.00  0.00     0.000 C 
ATOM     22  C9   11 d          -7.832 209.338 120.227  0.00  0.00     0.002 C 
ATOM     23  C10  11 d          -8.919 208.544 119.484  0.00  0.00     0.033 C 
ENDBRANCH  14  17
ENDBRANCH   3  14
BRANCH  11  24
ATOM     24  N3   11 d         -14.132 205.605 110.874  0.00  0.00    -0.116 N 
ATOM     25  O1   11 d         -14.337 204.480 110.934  0.00  0.00    -0.532 OA
ATOM     26  O2   11 d         -14.574 206.236 109.874  0.00  0.00    -0.532 OA
ENDBRANCH  11  24
TORSDOF 3
ENDMDL
