MODEL 1
REMARK VINA RESULT:      -8.7      0.000      0.000
REMARK  4 active torsions:
REMARK  status: ('A' for Active; 'I' for Inactive)
REMARK    1  A    between atoms: N3_19  and  C15_20 
REMARK    2  A    between atoms: C15_20  and  C16_21 
REMARK       I    between atoms: C16_21  and  N4_22 
REMARK    3  A    between atoms: N4_22  and  C17_23 
REMARK    4  A    between atoms: N4_22  and  C19_25 
ROOT
ATOM      1  C1   11 d          -7.905 209.247 114.347  0.00  0.00     0.268 A 
ATOM      2  C2   11 d          -9.152 208.705 114.005  0.00  0.00     0.105 A 
ATOM      3  C3   11 d          -9.357 208.193 112.734  0.00  0.00     0.093 A 
ATOM      4  C4   11 d         -10.658 207.698 112.631  0.00  0.00     0.031 A 
ATOM      5  C5   11 d         -11.322 207.883 113.839  0.00  0.00     0.111 A 
ATOM      6  N1   11 d         -12.608 207.483 114.020  0.00  0.00    -0.244 NA
ATOM      7  C6   11 d         -13.277 206.851 113.000  0.00  0.00     0.047 A 
ATOM      8  C7   11 d         -12.660 206.692 111.730  0.00  0.00    -0.009 A 
ATOM      9  C8   11 d         -11.318 207.100 111.552  0.00  0.00     0.028 A 
ATOM     10  C9   11 d         -13.424 206.088 110.575  0.00  0.00     0.209 C 
ATOM     11  O1   11 d         -14.757 205.599 110.911  0.00  0.00    -0.376 OA
ATOM     12  C10  11 d         -15.502 206.409 111.869  0.00  0.00     0.059 C 
ATOM     13  C11  11 d         -14.718 206.475 113.200  0.00  0.00     0.097 C 
ATOM     14  C12  11 d         -16.837 205.681 112.098  0.00  0.00     0.046 C 
ATOM     15  C13  11 d         -15.808 207.815 111.307  0.00  0.00     0.046 C 
ATOM     16  S1   11 d         -10.407 208.551 114.826  0.00  0.00    -0.062 SA
ATOM     17  N2   11 d          -8.372 208.220 111.802  0.00  0.00    -0.241 NA
ATOM     18  C14  11 d          -7.148 208.733 112.133  0.00  0.00     0.213 A 
ATOM     19  N3   11 d          -6.888 209.218 113.405  0.00  0.00    -0.299 N 
ATOM     20  O3   11 d          -7.714 209.718 115.498  0.00  0.00    -0.266 OA
ENDROOT
BRANCH  19  21
ATOM     21  C15  11 d          -5.508 209.674 113.734  0.00  0.00     0.236 C 
BRANCH  21  22
ATOM     22  C16  11 d          -4.624 208.572 114.286  0.00  0.00     0.238 C 
ATOM     23  N4   11 d          -4.545 208.280 115.678  0.00  0.00    -0.351 N 
ATOM     24  O2   11 d          -3.935 207.846 113.486  0.00  0.00    -0.272 OA
BRANCH  23  25
ATOM     25  C17  11 d          -5.167 206.972 116.094  0.00  0.00     0.121 C 
ATOM     26  C18  11 d          -4.247 205.894 116.663  0.00  0.00     0.026 C 
ENDBRANCH  23  25
BRANCH  23  27
ATOM     27  C19  11 d          -3.854 209.221 116.620  0.00  0.00     0.121 C 
ATOM     28  C20  11 d          -4.793 210.009 117.536  0.00  0.00     0.026 C 
ENDBRANCH  23  27
ENDBRANCH  21  22
ENDBRANCH  19  21
TORSDOF 4
ENDMDL
MODEL 2
REMARK VINA RESULT:      -8.2      1.581      2.175
REMARK  4 active torsions:
REMARK  status: ('A' for Active; 'I' for Inactive)
REMARK    1  A    between atoms: N3_19  and  C15_20 
REMARK    2  A    between atoms: C15_20  and  C16_21 
REMARK       I    between atoms: C16_21  and  N4_22 
REMARK    3  A    between atoms: N4_22  and  C17_23 
REMARK    4  A    between atoms: N4_22  and  C19_25 
ROOT
ATOM      1  C1   11 d          -7.587 208.724 112.843  0.00  0.00     0.268 A 
ATOM      2  C2   11 d          -8.944 208.399 112.699  0.00  0.00     0.105 A 
ATOM      3  C3   11 d          -9.789 208.463 113.795  0.00  0.00     0.093 A 
ATOM      4  C4   11 d         -11.085 208.114 113.411  0.00  0.00     0.031 A 
ATOM      5  C5   11 d         -11.100 207.813 112.054  0.00  0.00     0.111 A 
ATOM      6  N1   11 d         -12.242 207.447 111.413  0.00  0.00    -0.244 NA
ATOM      7  C6   11 d         -13.427 207.395 112.104  0.00  0.00     0.047 A 
ATOM      8  C7   11 d         -13.450 207.637 113.504  0.00  0.00    -0.009 A 
ATOM      9  C8   11 d         -12.261 208.028 114.163  0.00  0.00     0.028 A 
ATOM     10  C9   11 d         -14.731 207.484 114.290  0.00  0.00     0.209 C 
ATOM     11  O1   11 d         -15.912 207.192 113.485  0.00  0.00    -0.376 OA
ATOM     12  C10  11 d         -15.697 206.295 112.354  0.00  0.00     0.059 C 
ATOM     13  C11  11 d         -14.664 206.926 111.392  0.00  0.00     0.097 C 
ATOM     14  C12  11 d         -17.054 206.175 111.639  0.00  0.00     0.046 C 
ATOM     15  C13  11 d         -15.270 204.886 112.820  0.00  0.00     0.046 C 
ATOM     16  S1   11 d          -9.720 207.968 111.481  0.00  0.00    -0.062 SA
ATOM     17  N2   11 d          -9.323 208.824 115.017  0.00  0.00    -0.241 NA
ATOM     18  C14  11 d          -8.004 209.158 115.161  0.00  0.00     0.213 A 
ATOM     19  N3   11 d          -7.134 209.145 114.083  0.00  0.00    -0.299 N 
ATOM     20  O3   11 d          -6.813 208.661 111.852  0.00  0.00    -0.266 OA
ENDROOT
BRANCH  19  21
ATOM     21  C15  11 d          -5.733 209.612 114.283  0.00  0.00     0.236 C 
BRANCH  21  22
ATOM     22  C16  11 d          -4.805 208.529 114.799  0.00  0.00     0.238 C 
ATOM     23  N4   11 d          -4.665 208.238 116.187  0.00  0.00    -0.351 N 
ATOM     24  O2   11 d          -4.131 207.819 113.972  0.00  0.00    -0.272 OA
BRANCH  23  25
ATOM     25  C17  11 d          -5.241 206.916 116.625  0.00  0.00     0.121 C 
ATOM     26  C18  11 d          -6.330 206.933 117.697  0.00  0.00     0.026 C 
ENDBRANCH  23  25
BRANCH  23  27
ATOM     27  C19  11 d          -3.958 209.192 117.103  0.00  0.00     0.121 C 
ATOM     28  C20  11 d          -4.867 210.229 117.766  0.00  0.00     0.026 C 
ENDBRANCH  23  27
ENDBRANCH  21  22
ENDBRANCH  19  21
TORSDOF 4
ENDMDL
MODEL 3
REMARK VINA RESULT:      -7.8      3.649      4.901
REMARK  4 active torsions:
REMARK  status: ('A' for Active; 'I' for Inactive)
REMARK    1  A    between atoms: N3_19  and  C15_20 
REMARK    2  A    between atoms: C15_20  and  C16_21 
REMARK       I    between atoms: C16_21  and  N4_22 
REMARK    3  A    between atoms: N4_22  and  C17_23 
REMARK    4  A    between atoms: N4_22  and  C19_25 
ROOT
ATOM      1  C1   11 d          -9.166 207.695 117.662  0.00  0.00     0.268 A 
ATOM      2  C2   11 d         -10.238 207.571 116.768  0.00  0.00     0.105 A 
ATOM      3  C3   11 d         -11.357 206.839 117.129  0.00  0.00     0.093 A 
ATOM      4  C4   11 d         -12.293 206.868 116.094  0.00  0.00     0.031 A 
ATOM      5  C5   11 d         -11.792 207.621 115.038  0.00  0.00     0.111 A 
ATOM      6  N1   11 d         -12.504 207.821 113.897  0.00  0.00    -0.244 NA
ATOM      7  C6   11 d         -13.768 207.294 113.780  0.00  0.00     0.047 A 
ATOM      8  C7   11 d         -14.297 206.470 114.808  0.00  0.00    -0.009 A 
ATOM      9  C8   11 d         -13.556 206.275 115.997  0.00  0.00     0.028 A 
ATOM     10  C9   11 d         -15.645 205.806 114.644  0.00  0.00     0.209 C 
ATOM     11  O1   11 d         -16.364 206.174 113.429  0.00  0.00    -0.376 OA
ATOM     12  C10  11 d         -15.541 206.347 112.237  0.00  0.00     0.059 C 
ATOM     13  C11  11 d         -14.511 207.472 112.486  0.00  0.00     0.097 C 
ATOM     14  C12  11 d         -16.501 206.772 111.112  0.00  0.00     0.046 C 
ATOM     15  C13  11 d         -14.863 205.023 111.819  0.00  0.00     0.046 C 
ATOM     16  S1   11 d         -10.423 208.135 115.382  0.00  0.00    -0.062 SA
ATOM     17  N2   11 d         -11.430 206.224 118.336  0.00  0.00    -0.241 NA
ATOM     18  C14  11 d         -10.394 206.354 119.221  0.00  0.00     0.213 A 
ATOM     19  N3   11 d          -9.274 207.110 118.914  0.00  0.00    -0.299 N 
ATOM     20  O3   11 d          -8.143 208.354 117.337  0.00  0.00    -0.266 OA
ENDROOT
BRANCH  19  21
ATOM     21  C15  11 d          -8.223 207.294 119.954  0.00  0.00     0.236 C 
BRANCH  21  22
ATOM     22  C16  11 d          -8.054 208.736 120.392  0.00  0.00     0.238 C 
ATOM     23  N4   11 d          -6.780 209.304 120.680  0.00  0.00    -0.351 N 
ATOM     24  O2   11 d          -9.080 209.498 120.488  0.00  0.00    -0.272 OA
BRANCH  23  25
ATOM     25  C17  11 d          -6.296 210.327 119.685  0.00  0.00     0.121 C 
ATOM     26  C18  11 d          -6.339 211.797 120.095  0.00  0.00     0.026 C 
ENDBRANCH  23  25
BRANCH  23  27
ATOM     27  C19  11 d          -6.024 208.907 121.913  0.00  0.00     0.121 C 
ATOM     28  C20  11 d          -6.384 209.707 123.166  0.00  0.00     0.026 C 
ENDBRANCH  23  27
ENDBRANCH  21  22
ENDBRANCH  19  21
TORSDOF 4
ENDMDL
MODEL 4
REMARK VINA RESULT:      -7.7      3.534      4.755
REMARK  4 active torsions:
REMARK  status: ('A' for Active; 'I' for Inactive)
REMARK    1  A    between atoms: N3_19  and  C15_20 
REMARK    2  A    between atoms: C15_20  and  C16_21 
REMARK       I    between atoms: C16_21  and  N4_22 
REMARK    3  A    between atoms: N4_22  and  C17_23 
REMARK    4  A    between atoms: N4_22  and  C19_25 
ROOT
ATOM      1  C1   11 d          -9.483 207.560 117.734  0.00  0.00     0.268 A 
ATOM      2  C2   11 d         -10.530 207.458 116.808  0.00  0.00     0.105 A 
ATOM      3  C3   11 d         -11.643 206.689 117.106  0.00  0.00     0.093 A 
ATOM      4  C4   11 d         -12.554 206.750 116.050  0.00  0.00     0.031 A 
ATOM      5  C5   11 d         -12.043 207.561 115.043  0.00  0.00     0.111 A 
ATOM      6  N1   11 d         -12.731 207.801 113.896  0.00  0.00    -0.244 NA
ATOM      7  C6   11 d         -13.980 207.258 113.722  0.00  0.00     0.047 A 
ATOM      8  C7   11 d         -14.518 206.375 114.697  0.00  0.00    -0.009 A 
ATOM      9  C8   11 d         -13.802 206.139 115.893  0.00  0.00     0.028 A 
ATOM     10  C9   11 d         -15.848 205.695 114.467  0.00  0.00     0.209 C 
ATOM     11  O1   11 d         -16.545 206.107 113.254  0.00  0.00    -0.376 OA
ATOM     12  C10  11 d         -15.696 206.351 112.092  0.00  0.00     0.059 C 
ATOM     13  C11  11 d         -14.696 207.483 112.420  0.00  0.00     0.097 C 
ATOM     14  C12  11 d         -16.637 206.811 110.965  0.00  0.00     0.046 C 
ATOM     15  C13  11 d         -14.982 205.062 111.629  0.00  0.00     0.046 C 
ATOM     16  S1   11 d         -10.693 208.084 115.446  0.00  0.00    -0.062 SA
ATOM     17  N2   11 d         -11.733 206.016 118.281  0.00  0.00    -0.241 NA
ATOM     18  C14  11 d         -10.722 206.124 119.196  0.00  0.00     0.213 A 
ATOM     19  N3   11 d          -9.610 206.914 118.954  0.00  0.00    -0.299 N 
ATOM     20  O3   11 d          -8.466 208.253 117.466  0.00  0.00    -0.266 OA
ENDROOT
BRANCH  19  21
ATOM     21  C15  11 d          -8.589 207.068 120.027  0.00  0.00     0.236 C 
BRANCH  21  22
ATOM     22  C16  11 d          -7.633 205.894 120.124  0.00  0.00     0.238 C 
ATOM     23  N4   11 d          -6.295 205.955 119.641  0.00  0.00    -0.351 N 
ATOM     24  O2   11 d          -8.015 204.805 120.682  0.00  0.00    -0.272 OA
BRANCH  23  25
ATOM     25  C17  11 d          -5.229 205.955 120.707  0.00  0.00     0.121 C 
ATOM     26  C18  11 d          -5.034 207.233 121.521  0.00  0.00     0.026 C 
ENDBRANCH  23  25
BRANCH  23  27
ATOM     27  C19  11 d          -6.011 205.984 118.169  0.00  0.00     0.121 C 
ATOM     28  C20  11 d          -4.952 204.981 117.705  0.00  0.00     0.026 C 
ENDBRANCH  23  27
ENDBRANCH  21  22
ENDBRANCH  19  21
TORSDOF 4
ENDMDL
MODEL 5
REMARK VINA RESULT:      -7.7      6.226      8.553
REMARK  4 active torsions:
REMARK  status: ('A' for Active; 'I' for Inactive)
REMARK    1  A    between atoms: N3_19  and  C15_20 
REMARK    2  A    between atoms: C15_20  and  C16_21 
REMARK       I    between atoms: C16_21  and  N4_22 
REMARK    3  A    between atoms: N4_22  and  C17_23 
REMARK    4  A    between atoms: N4_22  and  C19_25 
ROOT
ATOM      1  C1   11 d         -12.454 206.045 119.065  0.00  0.00     0.268 A 
ATOM      2  C2   11 d         -12.864 206.231 117.738  0.00  0.00     0.105 A 
ATOM      3  C3   11 d         -14.083 205.726 117.315  0.00  0.00     0.093 A 
ATOM      4  C4   11 d         -14.284 206.044 115.971  0.00  0.00     0.031 A 
ATOM      5  C5   11 d         -13.191 206.762 115.496  0.00  0.00     0.111 A 
ATOM      6  N1   11 d         -13.127 207.207 114.214  0.00  0.00    -0.244 NA
ATOM      7  C6   11 d         -14.174 206.975 113.356  0.00  0.00     0.047 A 
ATOM      8  C7   11 d         -15.286 206.197 113.779  0.00  0.00    -0.009 A 
ATOM      9  C8   11 d         -15.352 205.746 115.118  0.00  0.00     0.028 A 
ATOM     10  C9   11 d         -16.395 205.853 112.813  0.00  0.00     0.209 C 
ATOM     11  O1   11 d         -16.274 206.470 111.496  0.00  0.00    -0.376 OA
ATOM     12  C10  11 d         -14.917 206.566 110.968  0.00  0.00     0.059 C 
ATOM     13  C11  11 d         -14.055 207.420 111.926  0.00  0.00     0.097 C 
ATOM     14  C12  11 d         -15.035 207.282 109.612  0.00  0.00     0.046 C 
ATOM     15  C13  11 d         -14.302 205.169 110.725  0.00  0.00     0.046 C 
ATOM     16  S1   11 d         -12.182 206.940 116.596  0.00  0.00    -0.062 SA
ATOM     17  N2   11 d         -14.888 205.039 118.164  0.00  0.00    -0.241 NA
ATOM     18  C14  11 d         -14.501 204.867 119.465  0.00  0.00     0.213 A 
ATOM     19  N3   11 d         -13.308 205.390 119.938  0.00  0.00    -0.299 N 
ATOM     20  O3   11 d         -11.345 206.496 119.453  0.00  0.00    -0.266 OA
ENDROOT
BRANCH  19  21
ATOM     21  C15  11 d         -12.988 205.254 121.387  0.00  0.00     0.236 C 
BRANCH  21  22
ATOM     22  C16  11 d         -14.070 205.802 122.298  0.00  0.00     0.238 C 
ATOM     23  N4   11 d         -14.715 205.003 123.286  0.00  0.00    -0.351 N 
ATOM     24  O2   11 d         -14.413 207.033 122.213  0.00  0.00    -0.272 OA
BRANCH  23  25
ATOM     25  C17  11 d         -14.374 205.350 124.712  0.00  0.00     0.121 C 
ATOM     26  C18  11 d         -15.404 206.137 125.520  0.00  0.00     0.026 C 
ENDBRANCH  23  25
BRANCH  23  27
ATOM     27  C19  11 d         -15.681 203.926 122.890  0.00  0.00     0.121 C 
ATOM     28  C20  11 d         -17.001 204.437 122.308  0.00  0.00     0.026 C 
ENDBRANCH  23  27
ENDBRANCH  21  22
ENDBRANCH  19  21
TORSDOF 4
ENDMDL
MODEL 6
REMARK VINA RESULT:      -7.7      2.817      9.509
REMARK  4 active torsions:
REMARK  status: ('A' for Active; 'I' for Inactive)
REMARK    1  A    between atoms: N3_19  and  C15_20 
REMARK    2  A    between atoms: C15_20  and  C16_21 
REMARK       I    between atoms: C16_21  and  N4_22 
REMARK    3  A    between atoms: N4_22  and  C17_23 
REMARK    4  A    between atoms: N4_22  and  C19_25 
ROOT
ATOM      1  C1   11 d         -12.592 208.086 114.820  0.00  0.00     0.268 A 
ATOM      2  C2   11 d         -11.290 208.238 115.316  0.00  0.00     0.105 A 
ATOM      3  C3   11 d         -11.022 207.967 116.648  0.00  0.00     0.093 A 
ATOM      4  C4   11 d          -9.666 208.172 116.907  0.00  0.00     0.031 A 
ATOM      5  C5   11 d          -9.029 208.586 115.742  0.00  0.00     0.111 A 
ATOM      6  N1   11 d          -7.697 208.852 115.708  0.00  0.00    -0.244 NA
ATOM      7  C6   11 d          -6.937 208.685 116.840  0.00  0.00     0.047 A 
ATOM      8  C7   11 d          -7.554 208.320 118.067  0.00  0.00    -0.009 A 
ATOM      9  C8   11 d          -8.938 208.034 118.093  0.00  0.00     0.028 A 
ATOM     10  C9   11 d          -6.742 208.231 119.338  0.00  0.00     0.209 C 
ATOM     11  O1   11 d          -5.307 208.433 119.164  0.00  0.00    -0.376 OA
ATOM     12  C10  11 d          -4.928 209.446 118.184  0.00  0.00     0.059 C 
ATOM     13  C11  11 d          -5.479 209.045 116.796  0.00  0.00     0.097 C 
ATOM     14  C12  11 d          -3.390 209.446 118.143  0.00  0.00     0.046 C 
ATOM     15  C13  11 d          -5.401 210.854 118.610  0.00  0.00     0.046 C 
ATOM     16  S1   11 d         -10.024 208.666 114.619  0.00  0.00    -0.062 SA
ATOM     17  N2   11 d         -12.007 207.565 117.491  0.00  0.00    -0.241 NA
ATOM     18  C14  11 d         -13.276 207.398 117.010  0.00  0.00     0.213 A 
ATOM     19  N3   11 d         -13.578 207.621 115.676  0.00  0.00    -0.299 N 
ATOM     20  O3   11 d         -12.843 208.337 113.612  0.00  0.00    -0.266 OA
ENDROOT
BRANCH  19  21
ATOM     21  C15  11 d         -14.957 207.330 115.192  0.00  0.00     0.236 C 
BRANCH  21  22
ATOM     22  C16  11 d         -15.094 205.963 114.549  0.00  0.00     0.238 C 
ATOM     23  N4   11 d         -15.379 205.795 113.163  0.00  0.00    -0.351 N 
ATOM     24  O2   11 d         -14.924 204.906 115.253  0.00  0.00    -0.272 OA
BRANCH  23  25
ATOM     25  C17  11 d         -14.242 205.249 112.337  0.00  0.00     0.121 C 
ATOM     26  C18  11 d         -14.553 204.125 111.351  0.00  0.00     0.026 C 
ENDBRANCH  23  25
BRANCH  23  27
ATOM     27  C19  11 d         -16.737 206.119 112.615  0.00  0.00     0.121 C 
ATOM     28  C20  11 d         -16.723 206.847 111.269  0.00  0.00     0.026 C 
ENDBRANCH  23  27
ENDBRANCH  21  22
ENDBRANCH  19  21
TORSDOF 4
ENDMDL
MODEL 7
REMARK VINA RESULT:      -7.6      6.043      8.783
REMARK  4 active torsions:
REMARK  status: ('A' for Active; 'I' for Inactive)
REMARK    1  A    between atoms: N3_19  and  C15_20 
REMARK    2  A    between atoms: C15_20  and  C16_21 
REMARK       I    between atoms: C16_21  and  N4_22 
REMARK    3  A    between atoms: N4_22  and  C17_23 
REMARK    4  A    between atoms: N4_22  and  C19_25 
ROOT
ATOM      1  C1   11 d         -12.384 207.648 115.877  0.00  0.00     0.268 A 
ATOM      2  C2   11 d         -12.728 206.999 117.071  0.00  0.00     0.105 A 
ATOM      3  C3   11 d         -13.795 206.116 117.094  0.00  0.00     0.093 A 
ATOM      4  C4   11 d         -13.937 205.582 118.375  0.00  0.00     0.031 A 
ATOM      5  C5   11 d         -12.961 206.115 119.210  0.00  0.00     0.111 A 
ATOM      6  N1   11 d         -12.864 205.761 120.519  0.00  0.00    -0.244 NA
ATOM      7  C6   11 d         -13.728 204.830 121.041  0.00  0.00     0.047 A 
ATOM      8  C7   11 d         -14.778 204.301 120.242  0.00  0.00    -0.009 A 
ATOM      9  C8   11 d         -14.867 204.666 118.878  0.00  0.00     0.028 A 
ATOM     10  C9   11 d         -15.793 203.353 120.836  0.00  0.00     0.209 C 
ATOM     11  O1   11 d         -15.529 202.960 122.216  0.00  0.00    -0.376 OA
ATOM     12  C10  11 d         -14.993 204.009 123.077  0.00  0.00     0.059 C 
ATOM     13  C11  11 d         -13.644 204.500 122.504  0.00  0.00     0.097 C 
ATOM     14  C12  11 d         -14.757 203.356 124.450  0.00  0.00     0.046 C 
ATOM     15  C13  11 d         -16.001 205.166 123.259  0.00  0.00     0.046 C 
ATOM     16  S1   11 d         -12.101 207.076 118.439  0.00  0.00    -0.062 SA
ATOM     17  N2   11 d         -14.528 205.876 115.977  0.00  0.00    -0.241 NA
ATOM     18  C14  11 d         -14.189 206.495 114.805  0.00  0.00     0.213 A 
ATOM     19  N3   11 d         -13.105 207.355 114.730  0.00  0.00    -0.299 N 
ATOM     20  O3   11 d         -11.419 208.457 115.852  0.00  0.00    -0.266 OA
ENDROOT
BRANCH  19  21
ATOM     21  C15  11 d         -12.727 207.922 113.405  0.00  0.00     0.236 C 
BRANCH  21  22
ATOM     22  C16  11 d         -12.137 206.896 112.456  0.00  0.00     0.238 C 
ATOM     23  N4   11 d         -12.528 206.805 111.089  0.00  0.00    -0.351 N 
ATOM     24  O2   11 d         -11.232 206.089 112.871  0.00  0.00    -0.272 OA
BRANCH  23  25
ATOM     25  C17  11 d         -11.480 207.235 110.094  0.00  0.00     0.121 C 
ATOM     26  C18  11 d         -10.408 208.215 110.566  0.00  0.00     0.026 C 
ENDBRANCH  23  25
BRANCH  23  27
ATOM     27  C19  11 d         -13.882 206.283 110.712  0.00  0.00     0.121 C 
ATOM     28  C20  11 d         -14.781 207.297 110.003  0.00  0.00     0.026 C 
ENDBRANCH  23  27
ENDBRANCH  21  22
ENDBRANCH  19  21
TORSDOF 4
ENDMDL
MODEL 8
REMARK VINA RESULT:      -7.6      7.718     10.972
REMARK  4 active torsions:
REMARK  status: ('A' for Active; 'I' for Inactive)
REMARK    1  A    between atoms: N3_19  and  C15_20 
REMARK    2  A    between atoms: C15_20  and  C16_21 
REMARK       I    between atoms: C16_21  and  N4_22 
REMARK    3  A    between atoms: N4_22  and  C17_23 
REMARK    4  A    between atoms: N4_22  and  C19_25 
ROOT
ATOM      1  C1   11 d         -15.544 204.316 120.799  0.00  0.00     0.268 A 
ATOM      2  C2   11 d         -14.934 204.740 119.610  0.00  0.00     0.105 A 
ATOM      3  C3   11 d         -14.326 205.983 119.552  0.00  0.00     0.093 A 
ATOM      4  C4   11 d         -13.777 206.181 118.283  0.00  0.00     0.031 A 
ATOM      5  C5   11 d         -14.025 205.064 117.493  0.00  0.00     0.111 A 
ATOM      6  N1   11 d         -13.593 204.985 116.207  0.00  0.00    -0.244 NA
ATOM      7  C6   11 d         -12.865 206.016 115.665  0.00  0.00     0.047 A 
ATOM      8  C7   11 d         -12.638 207.201 116.415  0.00  0.00    -0.009 A 
ATOM      9  C8   11 d         -13.081 207.273 117.756  0.00  0.00     0.028 A 
ATOM     10  C9   11 d         -11.926 208.380 115.793  0.00  0.00     0.209 C 
ATOM     11  O1   11 d         -11.414 208.145 114.447  0.00  0.00    -0.376 OA
ATOM     12  C10  11 d         -12.264 207.331 113.584  0.00  0.00     0.059 C 
ATOM     13  C11  11 d         -12.453 205.936 114.222  0.00  0.00     0.097 C 
ATOM     14  C12  11 d         -11.506 207.185 112.253  0.00  0.00     0.046 C 
ATOM     15  C13  11 d         -13.614 208.025 113.298  0.00  0.00     0.046 C 
ATOM     16  S1   11 d         -14.795 204.042 118.281  0.00  0.00    -0.062 SA
ATOM     17  N2   11 d         -14.321 206.810 120.628  0.00  0.00    -0.241 NA
ATOM     18  C14  11 d         -14.900 206.396 121.796  0.00  0.00     0.213 A 
ATOM     19  N3   11 d         -15.484 205.145 121.908  0.00  0.00    -0.299 N 
ATOM     20  O3   11 d         -16.104 203.189 120.855  0.00  0.00    -0.266 OA
ENDROOT
BRANCH  19  21
ATOM     21  C15  11 d         -16.012 204.713 123.232  0.00  0.00     0.236 C 
BRANCH  21  22
ATOM     22  C16  11 d         -17.326 205.374 123.603  0.00  0.00     0.238 C 
ATOM     23  N4   11 d         -18.585 204.739 123.407  0.00  0.00    -0.351 N 
ATOM     24  O2   11 d         -17.325 206.538 124.139  0.00  0.00    -0.272 OA
BRANCH  23  25
ATOM     25  C17  11 d         -19.294 204.319 124.669  0.00  0.00     0.121 C 
ATOM     26  C18  11 d         -20.512 203.408 124.534  0.00  0.00     0.026 C 
ENDBRANCH  23  25
BRANCH  23  27
ATOM     27  C19  11 d         -19.142 204.550 122.027  0.00  0.00     0.121 C 
ATOM     28  C20  11 d         -19.023 205.775 121.119  0.00  0.00     0.026 C 
ENDBRANCH  23  27
ENDBRANCH  21  22
ENDBRANCH  19  21
TORSDOF 4
ENDMDL
MODEL 9
REMARK VINA RESULT:      -7.5      4.434      9.654
REMARK  4 active torsions:
REMARK  status: ('A' for Active; 'I' for Inactive)
REMARK    1  A    between atoms: N3_19  and  C15_20 
REMARK    2  A    between atoms: C15_20  and  C16_21 
REMARK       I    between atoms: C16_21  and  N4_22 
REMARK    3  A    between atoms: N4_22  and  C17_23 
REMARK    4  A    between atoms: N4_22  and  C19_25 
ROOT
ATOM      1  C1   11 d         -13.169 207.102 116.196  0.00  0.00     0.268 A 
ATOM      2  C2   11 d         -12.248 206.831 117.218  0.00  0.00     0.105 A 
ATOM      3  C3   11 d         -11.001 207.435 117.202  0.00  0.00     0.093 A 
ATOM      4  C4   11 d         -10.267 207.031 118.318  0.00  0.00     0.031 A 
ATOM      5  C5   11 d         -11.029 206.152 119.079  0.00  0.00     0.111 A 
ATOM      6  N1   11 d         -10.558 205.607 120.232  0.00  0.00    -0.244 NA
ATOM      7  C6   11 d          -9.307 205.946 120.687  0.00  0.00     0.047 A 
ATOM      8  C7   11 d          -8.471 206.794 119.914  0.00  0.00    -0.009 A 
ATOM      9  C8   11 d          -8.971 207.367 118.721  0.00  0.00     0.028 A 
ATOM     10  C9   11 d          -7.057 207.092 120.357  0.00  0.00     0.209 C 
ATOM     11  O1   11 d          -6.695 206.542 121.659  0.00  0.00    -0.376 OA
ATOM     12  C10  11 d          -7.237 205.220 121.956  0.00  0.00     0.059 C 
ATOM     13  C11  11 d          -8.781 205.283 121.929  0.00  0.00     0.097 C 
ATOM     14  C12  11 d          -6.765 204.874 123.379  0.00  0.00     0.046 C 
ATOM     15  C13  11 d          -6.684 204.149 120.990  0.00  0.00     0.046 C 
ATOM     16  S1   11 d         -12.369 205.946 118.432  0.00  0.00    -0.062 SA
ATOM     17  N2   11 d         -10.647 208.279 116.200  0.00  0.00    -0.241 NA
ATOM     18  C14  11 d         -11.546 208.560 115.208  0.00  0.00     0.213 A 
ATOM     19  N3   11 d         -12.817 208.008 115.209  0.00  0.00    -0.299 N 
ATOM     20  O3   11 d         -14.301 206.551 116.203  0.00  0.00    -0.266 OA
ENDROOT
BRANCH  19  21
ATOM     21  C15  11 d         -13.784 208.428 114.155  0.00  0.00     0.236 C 
BRANCH  21  22
ATOM     22  C16  11 d         -13.759 207.540 112.926  0.00  0.00     0.238 C 
ATOM     23  N4   11 d         -14.947 207.100 112.275  0.00  0.00    -0.351 N 
ATOM     24  O2   11 d         -12.637 207.182 112.420  0.00  0.00    -0.272 OA
BRANCH  23  25
ATOM     25  C17  11 d         -15.197 207.709 110.919  0.00  0.00     0.121 C 
ATOM     26  C18  11 d         -14.634 206.985 109.698  0.00  0.00     0.026 C 
ENDBRANCH  23  25
BRANCH  23  27
ATOM     27  C19  11 d         -15.840 206.080 112.916  0.00  0.00     0.121 C 
ATOM     28  C20  11 d         -17.167 205.848 112.190  0.00  0.00     0.026 C 
ENDBRANCH  23  27
ENDBRANCH  21  22
ENDBRANCH  19  21
TORSDOF 4
ENDMDL
MODEL 10
REMARK VINA RESULT:      -7.3      3.991      5.010
REMARK  4 active torsions:
REMARK  status: ('A' for Active; 'I' for Inactive)
REMARK    1  A    between atoms: N3_19  and  C15_20 
REMARK    2  A    between atoms: C15_20  and  C16_21 
REMARK       I    between atoms: C16_21  and  N4_22 
REMARK    3  A    between atoms: N4_22  and  C17_23 
REMARK    4  A    between atoms: N4_22  and  C19_25 
ROOT
ATOM      1  C1   11 d         -10.402 206.642 119.373  0.00  0.00     0.268 A 
ATOM      2  C2   11 d         -11.034 206.512 118.129  0.00  0.00     0.105 A 
ATOM      3  C3   11 d         -10.517 207.162 117.020  0.00  0.00     0.093 A 
ATOM      4  C4   11 d         -11.298 206.875 115.899  0.00  0.00     0.031 A 
ATOM      5  C5   11 d         -12.340 206.031 116.265  0.00  0.00     0.111 A 
ATOM      6  N1   11 d         -13.253 205.585 115.362  0.00  0.00    -0.244 NA
ATOM      7  C6   11 d         -13.140 205.945 114.041  0.00  0.00     0.047 A 
ATOM      8  C7   11 d         -12.126 206.852 113.631  0.00  0.00    -0.009 A 
ATOM      9  C8   11 d         -11.173 207.303 114.573  0.00  0.00     0.028 A 
ATOM     10  C9   11 d         -12.056 207.331 112.200  0.00  0.00     0.209 C 
ATOM     11  O1   11 d         -13.018 206.707 111.298  0.00  0.00    -0.376 OA
ATOM     12  C10  11 d         -14.337 206.448 111.865  0.00  0.00     0.059 C 
ATOM     13  C11  11 d         -14.196 205.493 113.072  0.00  0.00     0.097 C 
ATOM     14  C12  11 d         -15.150 205.755 110.758  0.00  0.00     0.046 C 
ATOM     15  C13  11 d         -15.059 207.760 112.245  0.00  0.00     0.046 C 
ATOM     16  S1   11 d         -12.260 205.728 117.734  0.00  0.00    -0.062 SA
ATOM     17  N2   11 d          -9.410 207.941 117.119  0.00  0.00    -0.241 NA
ATOM     18  C14  11 d          -8.779 208.060 118.327  0.00  0.00     0.213 A 
ATOM     19  N3   11 d          -9.240 207.395 119.452  0.00  0.00    -0.299 N 
ATOM     20  O3   11 d         -10.871 206.059 120.385  0.00  0.00    -0.266 OA
ENDROOT
BRANCH  19  21
ATOM     21  C15  11 d          -8.455 207.486 120.715  0.00  0.00     0.236 C 
BRANCH  21  22
ATOM     22  C16  11 d          -8.052 208.904 121.073  0.00  0.00     0.238 C 
ATOM     23  N4   11 d          -6.712 209.371 120.956  0.00  0.00    -0.351 N 
ATOM     24  O2   11 d          -8.939 209.738 121.473  0.00  0.00    -0.272 OA
BRANCH  23  25
ATOM     25  C17  11 d          -6.477 210.374 119.855  0.00  0.00     0.121 C 
ATOM     26  C18  11 d          -6.178 211.817 120.256  0.00  0.00     0.026 C 
ENDBRANCH  23  25
BRANCH  23  27
ATOM     27  C19  11 d          -5.649 208.897 121.902  0.00  0.00     0.121 C 
ATOM     28  C20  11 d          -4.323 208.523 121.235  0.00  0.00     0.026 C 
ENDBRANCH  23  27
ENDBRANCH  21  22
ENDBRANCH  19  21
TORSDOF 4
ENDMDL
