MODEL 1
REMARK VINA RESULT:      -7.1      0.000      0.000
REMARK  2 active torsions:
REMARK  status: ('A' for Active; 'I' for Inactive)
REMARK    1  A    between atoms: C7_11  and  O2_15 
REMARK    2  A    between atoms: C8_12  and  O1_14 
ROOT
ATOM      1  C1   11 d         -10.942 207.902 113.260  0.00  0.00     0.120 A 
ATOM      2  C2   11 d         -11.999 207.109 112.769  0.00  0.00     0.127 A 
ATOM      3  C3   11 d         -12.132 206.884 111.405  0.00  0.00     0.098 A 
ATOM      4  N1   11 d         -13.203 206.100 111.121  0.00  0.00    -0.191 NA
ATOM      5  S1   11 d         -14.044 205.641 112.512  0.00  0.00     0.117 SA
ATOM      6  N2   11 d         -12.904 206.543 113.520  0.00  0.00    -0.189 NA
ATOM      7  C4   11 d         -11.233 207.428 110.479  0.00  0.00     0.037 A 
ATOM      8  C5   11 d         -10.173 208.221 110.946  0.00  0.00     0.036 A 
ATOM      9  C6   11 d         -10.019 208.463 112.329  0.00  0.00     0.091 A 
ATOM     10  N3   11 d          -8.971 209.246 112.802  0.00  0.00    -0.219 NA
ATOM     11  C7   11 d          -8.830 209.479 114.163  0.00  0.00     0.217 A 
ATOM     12  C8   11 d          -9.714 208.939 115.025  0.00  0.00     0.217 A 
ATOM     13  N4   11 d         -10.820 208.114 114.558  0.00  0.00    -0.216 NA
ENDROOT
BRANCH  11  14
ATOM     14  O2   11 d          -7.880 210.197 114.669  0.00  0.00    -0.342 OA
ATOM     15  H    11 d          -6.866 209.980 114.435  0.00  0.00     0.219 HD
ENDBRANCH  11  14
BRANCH  12  16
ATOM     16  O1   11 d          -9.623 209.128 116.302  0.00  0.00    -0.342 OA
ATOM     17  H    11 d          -8.851 208.649 116.858  0.00  0.00     0.219 HD
ENDBRANCH  12  16
TORSDOF 2
ENDMDL
MODEL 2
REMARK VINA RESULT:      -6.8      2.536      3.283
REMARK  2 active torsions:
REMARK  status: ('A' for Active; 'I' for Inactive)
REMARK    1  A    between atoms: C7_11  and  O2_15 
REMARK    2  A    between atoms: C8_12  and  O1_14 
ROOT
ATOM      1  C1   11 d         -13.918 207.328 113.878  0.00  0.00     0.120 A 
ATOM      2  C2   11 d         -14.830 206.936 112.876  0.00  0.00     0.127 A 
ATOM      3  C3   11 d         -14.380 206.628 111.600  0.00  0.00     0.098 A 
ATOM      4  N1   11 d         -15.396 206.271 110.774  0.00  0.00    -0.191 NA
ATOM      5  S1   11 d         -16.895 206.312 111.554  0.00  0.00     0.117 SA
ATOM      6  N2   11 d         -16.118 206.832 113.056  0.00  0.00    -0.189 NA
ATOM      7  C4   11 d         -13.022 206.695 111.262  0.00  0.00     0.037 A 
ATOM      8  C5   11 d         -12.096 207.085 112.244  0.00  0.00     0.036 A 
ATOM      9  C6   11 d         -12.532 207.401 113.549  0.00  0.00     0.091 A 
ATOM     10  N3   11 d         -11.624 207.787 114.529  0.00  0.00    -0.219 NA
ATOM     11  C7   11 d         -12.063 208.098 115.808  0.00  0.00     0.217 A 
ATOM     12  C8   11 d         -13.377 208.023 116.097  0.00  0.00     0.217 A 
ATOM     13  N4   11 d         -14.351 207.621 115.091  0.00  0.00    -0.216 NA
ENDROOT
BRANCH  11  14
ATOM     14  O2   11 d         -11.272 208.464 116.764  0.00  0.00    -0.342 OA
ATOM     15  H    11 d         -11.643 208.553 117.757  0.00  0.00     0.219 HD
ENDBRANCH  11  14
BRANCH  12  16
ATOM     16  O1   11 d         -13.834 208.303 117.275  0.00  0.00    -0.342 OA
ATOM     17  H    11 d         -13.262 208.911 117.936  0.00  0.00     0.219 HD
ENDBRANCH  12  16
TORSDOF 2
ENDMDL
MODEL 3
REMARK VINA RESULT:      -6.7      4.363      5.465
REMARK  2 active torsions:
REMARK  status: ('A' for Active; 'I' for Inactive)
REMARK    1  A    between atoms: C7_11  and  O2_15 
REMARK    2  A    between atoms: C8_12  and  O1_14 
ROOT
ATOM      1  C1   11 d         -13.906 206.327 112.871  0.00  0.00     0.120 A 
ATOM      2  C2   11 d         -13.451 206.006 114.166  0.00  0.00     0.127 A 
ATOM      3  C3   11 d         -12.095 206.050 114.463  0.00  0.00     0.098 A 
ATOM      4  N1   11 d         -11.847 205.712 115.754  0.00  0.00    -0.191 NA
ATOM      5  S1   11 d         -13.262 205.344 116.600  0.00  0.00     0.117 SA
ATOM      6  N2   11 d         -14.230 205.658 115.153  0.00  0.00    -0.189 NA
ATOM      7  C4   11 d         -11.142 206.408 113.501  0.00  0.00     0.037 A 
ATOM      8  C5   11 d         -11.574 206.730 112.204  0.00  0.00     0.036 A 
ATOM      9  C6   11 d         -12.948 206.693 111.880  0.00  0.00     0.091 A 
ATOM     10  N3   11 d         -13.386 207.012 110.599  0.00  0.00    -0.219 NA
ATOM     11  C7   11 d         -14.738 206.971 110.291  0.00  0.00     0.217 A 
ATOM     12  C8   11 d         -15.627 206.621 111.242  0.00  0.00     0.217 A 
ATOM     13  N4   11 d         -15.197 206.284 112.592  0.00  0.00    -0.216 NA
ENDROOT
BRANCH  11  14
ATOM     14  O2   11 d         -15.212 207.254 109.121  0.00  0.00    -0.342 OA
ATOM     15  H    11 d         -15.329 208.269 108.825  0.00  0.00     0.219 HD
ENDBRANCH  11  14
BRANCH  12  16
ATOM     16  O1   11 d         -16.898 206.569 111.002  0.00  0.00    -0.342 OA
ATOM     17  H    11 d         -17.293 207.025 110.125  0.00  0.00     0.219 HD
ENDBRANCH  12  16
TORSDOF 2
ENDMDL
MODEL 4
REMARK VINA RESULT:      -6.6      3.747      4.706
REMARK  2 active torsions:
REMARK  status: ('A' for Active; 'I' for Inactive)
REMARK    1  A    between atoms: C7_11  and  O2_15 
REMARK    2  A    between atoms: C8_12  and  O1_14 
ROOT
ATOM      1  C1   11 d         -14.312 205.864 114.396  0.00  0.00     0.120 A 
ATOM      2  C2   11 d         -15.044 206.183 113.234  0.00  0.00     0.127 A 
ATOM      3  C3   11 d         -14.390 206.627 112.094  0.00  0.00     0.098 A 
ATOM      4  N1   11 d         -15.254 206.884 111.079  0.00  0.00    -0.191 NA
ATOM      5  S1   11 d         -16.858 206.584 111.516  0.00  0.00     0.117 SA
ATOM      6  N2   11 d         -16.342 206.092 113.136  0.00  0.00    -0.189 NA
ATOM      7  C4   11 d         -12.998 206.774 112.054  0.00  0.00     0.037 A 
ATOM      8  C5   11 d         -12.249 206.462 113.201  0.00  0.00     0.036 A 
ATOM      9  C6   11 d         -12.894 206.007 114.372  0.00  0.00     0.091 A 
ATOM     10  N3   11 d         -12.162 205.695 115.512  0.00  0.00    -0.219 NA
ATOM     11  C7   11 d         -12.806 205.251 116.658  0.00  0.00     0.217 A 
ATOM     12  C8   11 d         -14.147 205.123 116.660  0.00  0.00     0.217 A 
ATOM     13  N4   11 d         -14.939 205.442 115.480  0.00  0.00    -0.216 NA
ENDROOT
BRANCH  11  14
ATOM     14  O2   11 d         -12.185 204.945 117.751  0.00  0.00    -0.342 OA
ATOM     15  H    11 d         -11.613 205.680 118.263  0.00  0.00     0.219 HD
ENDBRANCH  11  14
BRANCH  12  16
ATOM     16  O1   11 d         -14.792 204.713 117.705  0.00  0.00    -0.342 OA
ATOM     17  H    11 d         -15.525 205.338 118.157  0.00  0.00     0.219 HD
ENDBRANCH  12  16
TORSDOF 2
ENDMDL
MODEL 5
REMARK VINA RESULT:      -6.6      1.934      2.446
REMARK  2 active torsions:
REMARK  status: ('A' for Active; 'I' for Inactive)
REMARK    1  A    between atoms: C7_11  and  O2_15 
REMARK    2  A    between atoms: C8_12  and  O1_14 
ROOT
ATOM      1  C1   11 d         -10.894 208.048 113.911  0.00  0.00     0.120 A 
ATOM      2  C2   11 d         -11.946 207.461 114.644  0.00  0.00     0.127 A 
ATOM      3  C3   11 d         -12.876 206.650 114.008  0.00  0.00     0.098 A 
ATOM      4  N1   11 d         -13.810 206.175 114.870  0.00  0.00    -0.191 NA
ATOM      5  S1   11 d         -13.553 206.716 116.450  0.00  0.00     0.117 SA
ATOM      6  N2   11 d         -12.126 207.621 115.927  0.00  0.00    -0.189 NA
ATOM      7  C4   11 d         -12.807 206.389 112.634  0.00  0.00     0.037 A 
ATOM      8  C5   11 d         -11.768 206.965 111.884  0.00  0.00     0.036 A 
ATOM      9  C6   11 d         -10.810 207.791 112.511  0.00  0.00     0.091 A 
ATOM     10  N3   11 d          -9.778 208.365 111.778  0.00  0.00    -0.219 NA
ATOM     11  C7   11 d          -8.842 209.178 112.403  0.00  0.00     0.217 A 
ATOM     12  C8   11 d          -8.940 209.408 113.728  0.00  0.00     0.217 A 
ATOM     13  N4   11 d         -10.011 208.819 114.520  0.00  0.00    -0.216 NA
ENDROOT
BRANCH  11  14
ATOM     14  O2   11 d          -7.859 209.742 111.781  0.00  0.00    -0.342 OA
ATOM     15  H    11 d          -7.481 210.677 112.119  0.00  0.00     0.219 HD
ENDBRANCH  11  14
BRANCH  12  16
ATOM     16  O1   11 d          -8.092 210.158 114.354  0.00  0.00    -0.342 OA
ATOM     17  H    11 d          -8.351 211.161 114.602  0.00  0.00     0.219 HD
ENDBRANCH  12  16
TORSDOF 2
ENDMDL
MODEL 6
REMARK VINA RESULT:      -6.5      1.510      2.663
REMARK  2 active torsions:
REMARK  status: ('A' for Active; 'I' for Inactive)
REMARK    1  A    between atoms: C7_11  and  O2_15 
REMARK    2  A    between atoms: C8_12  and  O1_14 
ROOT
ATOM      1  C1   11 d         -10.725 208.029 113.072  0.00  0.00     0.120 A 
ATOM      2  C2   11 d         -11.833 207.269 112.642  0.00  0.00     0.127 A 
ATOM      3  C3   11 d         -12.821 206.899 113.545  0.00  0.00     0.098 A 
ATOM      4  N1   11 d         -13.805 206.175 112.953  0.00  0.00    -0.191 NA
ATOM      5  S1   11 d         -13.525 205.948 111.303  0.00  0.00     0.117 SA
ATOM      6  N2   11 d         -12.017 206.868 111.415  0.00  0.00    -0.189 NA
ATOM      7  C4   11 d         -12.755 207.260 114.897  0.00  0.00     0.037 A 
ATOM      8  C5   11 d         -11.660 208.015 115.346  0.00  0.00     0.036 A 
ATOM      9  C6   11 d         -10.645 208.404 114.445  0.00  0.00     0.091 A 
ATOM     10  N3   11 d          -9.557 209.153 114.879  0.00  0.00    -0.219 NA
ATOM     11  C7   11 d          -8.563 209.528 113.986  0.00  0.00     0.217 A 
ATOM     12  C8   11 d          -8.659 209.163 112.692  0.00  0.00     0.217 A 
ATOM     13  N4   11 d          -9.787 208.378 112.210  0.00  0.00    -0.216 NA
ENDROOT
BRANCH  11  14
ATOM     14  O2   11 d          -7.526 210.223 114.324  0.00  0.00    -0.342 OA
ATOM     15  H    11 d          -7.577 210.888 115.152  0.00  0.00     0.219 HD
ENDBRANCH  11  14
BRANCH  12  16
ATOM     16  O1   11 d          -7.757 209.488 111.823  0.00  0.00    -0.342 OA
ATOM     17  H    11 d          -6.859 209.964 112.140  0.00  0.00     0.219 HD
ENDBRANCH  12  16
TORSDOF 2
ENDMDL
MODEL 7
REMARK VINA RESULT:      -6.4      2.795      3.931
REMARK  2 active torsions:
REMARK  status: ('A' for Active; 'I' for Inactive)
REMARK    1  A    between atoms: C7_11  and  O2_15 
REMARK    2  A    between atoms: C8_12  and  O1_14 
ROOT
ATOM      1  C1   11 d         -13.247 206.874 112.738  0.00  0.00     0.120 A 
ATOM      2  C2   11 d         -14.619 206.605 112.556  0.00  0.00     0.127 A 
ATOM      3  C3   11 d         -15.366 206.048 113.585  0.00  0.00     0.098 A 
ATOM      4  N1   11 d         -16.663 205.863 113.230  0.00  0.00    -0.191 NA
ATOM      5  S1   11 d         -16.968 206.367 111.646  0.00  0.00     0.117 SA
ATOM      6  N2   11 d         -15.276 206.848 111.455  0.00  0.00    -0.189 NA
ATOM      7  C4   11 d         -14.794 205.735 114.824  0.00  0.00     0.037 A 
ATOM      8  C5   11 d         -13.428 205.993 115.026  0.00  0.00     0.036 A 
ATOM      9  C6   11 d         -12.649 206.561 113.994  0.00  0.00     0.091 A 
ATOM     10  N3   11 d         -11.297 206.821 114.184  0.00  0.00    -0.219 NA
ATOM     11  C7   11 d         -10.540 207.377 113.162  0.00  0.00     0.217 A 
ATOM     12  C8   11 d         -11.125 207.666 111.982  0.00  0.00     0.217 A 
ATOM     13  N4   11 d         -12.540 207.404 111.756  0.00  0.00    -0.216 NA
ENDROOT
BRANCH  11  14
ATOM     14  O2   11 d          -9.279 207.644 113.272  0.00  0.00    -0.342 OA
ATOM     15  H    11 d          -8.826 207.689 114.233  0.00  0.00     0.219 HD
ENDBRANCH  11  14
BRANCH  12  16
ATOM     16  O1   11 d         -10.461 208.185 111.001  0.00  0.00    -0.342 OA
ATOM     17  H    11 d         -10.652 209.187 110.700  0.00  0.00     0.219 HD
ENDBRANCH  12  16
TORSDOF 2
ENDMDL
MODEL 8
REMARK VINA RESULT:      -6.4      3.702      4.966
REMARK  2 active torsions:
REMARK  status: ('A' for Active; 'I' for Inactive)
REMARK    1  A    between atoms: C7_11  and  O2_15 
REMARK    2  A    between atoms: C8_12  and  O1_14 
ROOT
ATOM      1  C1   11 d         -13.566 206.310 112.987  0.00  0.00     0.120 A 
ATOM      2  C2   11 d         -13.019 206.715 111.752  0.00  0.00     0.127 A 
ATOM      3  C3   11 d         -13.842 206.901 110.649  0.00  0.00     0.098 A 
ATOM      4  N1   11 d         -13.142 207.290 109.553  0.00  0.00    -0.191 NA
ATOM      5  S1   11 d         -11.488 207.426 109.868  0.00  0.00     0.117 SA
ATOM      6  N2   11 d         -11.750 206.939 111.548  0.00  0.00    -0.189 NA
ATOM      7  C4   11 d         -15.226 206.698 110.720  0.00  0.00     0.037 A 
ATOM      8  C5   11 d         -15.791 206.294 111.941  0.00  0.00     0.036 A 
ATOM      9  C6   11 d         -14.973 206.099 113.076  0.00  0.00     0.091 A 
ATOM     10  N3   11 d         -15.523 205.700 114.289  0.00  0.00    -0.219 NA
ATOM     11  C7   11 d         -14.711 205.509 115.398  0.00  0.00     0.217 A 
ATOM     12  C8   11 d         -13.383 205.714 115.292  0.00  0.00     0.217 A 
ATOM     13  N4   11 d         -12.780 206.133 114.034  0.00  0.00    -0.216 NA
ENDROOT
BRANCH  11  14
ATOM     14  O2   11 d         -15.157 205.139 116.554  0.00  0.00    -0.342 OA
ATOM     15  H    11 d         -16.195 205.217 116.774  0.00  0.00     0.219 HD
ENDBRANCH  11  14
BRANCH  12  16
ATOM     16  O1   11 d         -12.585 205.549 116.298  0.00  0.00    -0.342 OA
ATOM     17  H    11 d         -12.167 204.590 116.493  0.00  0.00     0.219 HD
ENDBRANCH  12  16
TORSDOF 2
ENDMDL
MODEL 9
REMARK VINA RESULT:      -6.4      3.399      4.873
REMARK  2 active torsions:
REMARK  status: ('A' for Active; 'I' for Inactive)
REMARK    1  A    between atoms: C7_11  and  O2_15 
REMARK    2  A    between atoms: C8_12  and  O1_14 
ROOT
ATOM      1  C1   11 d         -12.423 207.233 114.427  0.00  0.00     0.120 A 
ATOM      2  C2   11 d         -11.223 207.914 114.135  0.00  0.00     0.127 A 
ATOM      3  C3   11 d         -10.698 207.888 112.850  0.00  0.00     0.098 A 
ATOM      4  N1   11 d          -9.544 208.597 112.758  0.00  0.00    -0.191 NA
ATOM      5  S1   11 d          -9.103 209.291 114.234  0.00  0.00     0.117 SA
ATOM      6  N2   11 d         -10.534 208.597 115.008  0.00  0.00    -0.189 NA
ATOM      7  C4   11 d         -11.331 207.195 111.810  0.00  0.00     0.037 A 
ATOM      8  C5   11 d         -12.527 206.510 112.080  0.00  0.00     0.036 A 
ATOM      9  C6   11 d         -13.079 206.523 113.379  0.00  0.00     0.091 A 
ATOM     10  N3   11 d         -14.263 205.848 113.656  0.00  0.00    -0.219 NA
ATOM     11  C7   11 d         -14.796 205.866 114.938  0.00  0.00     0.217 A 
ATOM     12  C8   11 d         -14.160 206.544 115.914  0.00  0.00     0.217 A 
ATOM     13  N4   11 d         -12.918 207.260 115.652  0.00  0.00    -0.216 NA
ENDROOT
BRANCH  11  14
ATOM     14  O2   11 d         -15.892 205.260 115.263  0.00  0.00    -0.342 OA
ATOM     15  H    11 d         -16.552 205.698 115.972  0.00  0.00     0.219 HD
ENDBRANCH  11  14
BRANCH  12  16
ATOM     16  O1   11 d         -14.618 206.589 117.123  0.00  0.00    -0.342 OA
ATOM     17  H    11 d         -13.959 206.785 117.935  0.00  0.00     0.219 HD
ENDBRANCH  12  16
TORSDOF 2
ENDMDL
MODEL 10
REMARK VINA RESULT:      -6.3      4.303      6.079
REMARK  2 active torsions:
REMARK  status: ('A' for Active; 'I' for Inactive)
REMARK    1  A    between atoms: C7_11  and  O2_15 
REMARK    2  A    between atoms: C8_12  and  O1_14 
ROOT
ATOM      1  C1   11 d         -13.698 207.343 112.868  0.00  0.00     0.120 A 
ATOM      2  C2   11 d         -12.372 207.633 113.252  0.00  0.00     0.127 A 
ATOM      3  C3   11 d         -12.044 207.764 114.594  0.00  0.00     0.098 A 
ATOM      4  N1   11 d         -10.727 208.041 114.771  0.00  0.00    -0.191 NA
ATOM      5  S1   11 d          -9.894 208.140 113.304  0.00  0.00     0.117 SA
ATOM      6  N2   11 d         -11.384 207.794 112.415  0.00  0.00    -0.189 NA
ATOM      7  C4   11 d         -13.003 207.618 115.604  0.00  0.00     0.037 A 
ATOM      8  C5   11 d         -14.330 207.330 115.244  0.00  0.00     0.036 A 
ATOM      9  C6   11 d         -14.686 207.191 113.884  0.00  0.00     0.091 A 
ATOM     10  N3   11 d         -15.996 206.905 113.518  0.00  0.00    -0.219 NA
ATOM     11  C7   11 d         -16.336 206.772 112.178  0.00  0.00     0.217 A 
ATOM     12  C8   11 d         -15.386 206.921 111.234  0.00  0.00     0.217 A 
ATOM     13  N4   11 d         -14.006 207.220 111.589  0.00  0.00    -0.216 NA
ENDROOT
BRANCH  11  14
ATOM     14  O2   11 d         -17.534 206.508 111.769  0.00  0.00    -0.342 OA
ATOM     15  H    11 d         -18.314 206.343 112.474  0.00  0.00     0.219 HD
ENDBRANCH  11  14
BRANCH  12  16
ATOM     16  O1   11 d         -15.655 206.806 109.973  0.00  0.00    -0.342 OA
ATOM     17  H    11 d         -16.608 207.102 109.603  0.00  0.00     0.219 HD
ENDBRANCH  12  16
TORSDOF 2
ENDMDL
