MODEL 1
REMARK VINA RESULT:      -8.2      0.000      0.000
REMARK  4 active torsions:
REMARK  status: ('A' for Active; 'I' for Inactive)
REMARK    1  A    between atoms: C1_1  and  C2_2 
REMARK    2  A    between atoms: C4_4  and  N1_5 
REMARK    3  A    between atoms: C5_6  and  C6_7 
REMARK    4  A    between atoms: C11_12  and  O1_13 
ROOT
ATOM      1  C6   11 d         -13.341 207.912 113.730  0.00  0.00     0.026 A 
ATOM      2  C7   11 d         -14.114 207.099 112.851  0.00  0.00    -0.011 A 
ATOM      3  C8   11 d         -13.455 206.360 111.825  0.00  0.00    -0.025 A 
ATOM      4  C9   11 d         -12.056 206.418 111.704  0.00  0.00     0.015 A 
ATOM      5  C10  11 d         -11.304 207.182 112.602  0.00  0.00     0.038 A 
ATOM      6  C11  11 d         -11.931 207.898 113.628  0.00  0.00     0.078 A 
ATOM      7  C12  11 d         -14.203 205.565 110.934  0.00  0.00     0.012 A 
ATOM      8  C13  11 d         -15.594 205.482 111.061  0.00  0.00     0.001 A 
ATOM      9  C14  11 d         -16.249 206.180 112.081  0.00  0.00     0.001 A 
ATOM     10  C15  11 d         -15.518 206.976 112.974  0.00  0.00     0.013 A 
ENDROOT
BRANCH   1  11
ATOM     11  C5   11 d         -13.935 208.784 114.789  0.00  0.00     0.132 C 
ATOM     12  N1   11 d         -13.927 208.565 116.090  0.00  0.00    -0.260 NA
BRANCH  12  13
ATOM     13  C4   11 d         -13.455 207.328 116.677  0.00  0.00     0.057 A 
ATOM     14  C3   11 d         -12.337 207.395 117.526  0.00  0.00     0.046 A 
ATOM     15  C2   11 d         -11.833 206.239 118.164  0.00  0.00     0.011 A 
ATOM     16  C18  11 d         -12.479 205.005 117.933  0.00  0.00     0.015 A 
ATOM     17  C17  11 d         -13.607 204.934 117.104  0.00  0.00     0.003 A 
ATOM     18  C16  11 d         -14.103 206.091 116.489  0.00  0.00     0.031 A 
BRANCH  15  19
ATOM     19  C1   11 d         -10.635 206.338 119.054  0.00  0.00     0.155 C 
ATOM     20  O2   11 d         -10.392 205.414 119.873  0.00  0.00    -0.293 OA
ATOM     21  C19  11 d          -9.616 207.432 118.905  0.00  0.00     0.096 C 
ENDBRANCH  15  19
ENDBRANCH  12  13
ENDBRANCH   1  11
BRANCH   6  22
ATOM     22  O1   11 d         -11.131 208.717 114.461  0.00  0.00    -0.360 OA
ATOM     23  H5   11 d         -10.498 209.224 113.818  0.00  0.00     0.217 HD
ENDBRANCH   6  22
TORSDOF 4
ENDMDL
MODEL 2
REMARK VINA RESULT:      -8.0      1.632      2.563
REMARK  4 active torsions:
REMARK  status: ('A' for Active; 'I' for Inactive)
REMARK    1  A    between atoms: C1_1  and  C2_2 
REMARK    2  A    between atoms: C4_4  and  N1_5 
REMARK    3  A    between atoms: C5_6  and  C6_7 
REMARK    4  A    between atoms: C11_12  and  O1_13 
ROOT
ATOM      1  C6   11 d         -13.309 207.861 113.591  0.00  0.00     0.026 A 
ATOM      2  C7   11 d         -14.206 207.011 112.880  0.00  0.00    -0.011 A 
ATOM      3  C8   11 d         -13.701 206.184 111.835  0.00  0.00    -0.025 A 
ATOM      4  C9   11 d         -12.330 206.192 111.531  0.00  0.00     0.015 A 
ATOM      5  C10  11 d         -11.452 206.995 112.265  0.00  0.00     0.038 A 
ATOM      6  C11  11 d         -11.925 207.799 113.308  0.00  0.00     0.078 A 
ATOM      7  C12  11 d         -14.575 205.350 111.109  0.00  0.00     0.012 A 
ATOM      8  C13  11 d         -15.940 205.317 111.420  0.00  0.00     0.001 A 
ATOM      9  C14  11 d         -16.442 206.104 112.462  0.00  0.00     0.001 A 
ATOM     10  C15  11 d         -15.584 206.938 113.192  0.00  0.00     0.013 A 
ENDROOT
BRANCH   1  11
ATOM     11  C5   11 d         -13.742 208.822 114.651  0.00  0.00     0.132 C 
ATOM     12  N1   11 d         -13.665 208.647 115.956  0.00  0.00    -0.260 NA
BRANCH  12  13
ATOM     13  C4   11 d         -13.273 207.390 116.559  0.00  0.00     0.057 A 
ATOM     14  C3   11 d         -14.247 206.380 116.649  0.00  0.00     0.046 A 
ATOM     15  C2   11 d         -13.938 205.113 117.194  0.00  0.00     0.011 A 
ATOM     16  C18  11 d         -12.623 204.878 117.651  0.00  0.00     0.015 A 
ATOM     17  C17  11 d         -11.641 205.874 117.546  0.00  0.00     0.003 A 
ATOM     18  C16  11 d         -11.960 207.120 116.991  0.00  0.00     0.031 A 
BRANCH  15  19
ATOM     19  C1   11 d         -14.996 204.061 117.287  0.00  0.00     0.155 C 
ATOM     20  O2   11 d         -15.659 203.754 116.264  0.00  0.00    -0.293 OA
ATOM     21  C19  11 d         -15.199 203.239 118.529  0.00  0.00     0.096 C 
ENDBRANCH  15  19
ENDBRANCH  12  13
ENDBRANCH   1  11
BRANCH   6  22
ATOM     22  O1   11 d         -11.006 208.650 113.969  0.00  0.00    -0.360 OA
ATOM     23  H5   11 d         -10.646 208.096 114.765  0.00  0.00     0.217 HD
ENDBRANCH   6  22
TORSDOF 4
ENDMDL
MODEL 3
REMARK VINA RESULT:      -7.9      2.246      5.899
REMARK  4 active torsions:
REMARK  status: ('A' for Active; 'I' for Inactive)
REMARK    1  A    between atoms: C1_1  and  C2_2 
REMARK    2  A    between atoms: C4_4  and  N1_5 
REMARK    3  A    between atoms: C5_6  and  C6_7 
REMARK    4  A    between atoms: C11_12  and  O1_13 
ROOT
ATOM      1  C6   11 d         -14.100 206.784 115.694  0.00  0.00     0.026 A 
ATOM      2  C7   11 d         -12.791 207.322 115.857  0.00  0.00    -0.011 A 
ATOM      3  C8   11 d         -11.800 206.552 116.533  0.00  0.00    -0.025 A 
ATOM      4  C9   11 d         -12.110 205.267 117.008  0.00  0.00     0.015 A 
ATOM      5  C10  11 d         -13.385 204.730 116.801  0.00  0.00     0.038 A 
ATOM      6  C11  11 d         -14.365 205.463 116.122  0.00  0.00     0.078 A 
ATOM      7  C12  11 d         -10.504 207.074 116.721  0.00  0.00     0.012 A 
ATOM      8  C13  11 d         -10.178 208.345 116.231  0.00  0.00     0.001 A 
ATOM      9  C14  11 d         -11.135 209.098 115.542  0.00  0.00     0.001 A 
ATOM     10  C15  11 d         -12.427 208.592 115.349  0.00  0.00     0.013 A 
ENDROOT
BRANCH   1  11
ATOM     11  C5   11 d         -15.233 207.534 115.071  0.00  0.00     0.132 C 
ATOM     12  N1   11 d         -15.624 207.473 113.812  0.00  0.00    -0.260 NA
BRANCH  12  13
ATOM     13  C4   11 d         -14.886 206.757 112.793  0.00  0.00     0.057 A 
ATOM     14  C3   11 d         -13.654 207.295 112.382  0.00  0.00     0.046 A 
ATOM     15  C2   11 d         -12.856 206.642 111.416  0.00  0.00     0.011 A 
ATOM     16  C18  11 d         -13.321 205.427 110.866  0.00  0.00     0.015 A 
ATOM     17  C17  11 d         -14.539 204.873 111.286  0.00  0.00     0.003 A 
ATOM     18  C16  11 d         -15.313 205.527 112.255  0.00  0.00     0.031 A 
BRANCH  15  19
ATOM     19  C1   11 d         -11.555 207.242 110.990  0.00  0.00     0.155 C 
ATOM     20  O2   11 d         -11.295 207.357 109.764  0.00  0.00    -0.293 OA
ATOM     21  C19  11 d         -10.598 207.858 111.971  0.00  0.00     0.096 C 
ENDBRANCH  15  19
ENDBRANCH  12  13
ENDBRANCH   1  11
BRANCH   6  22
ATOM     22  O1   11 d         -15.661 204.904 116.008  0.00  0.00    -0.360 OA
ATOM     23  H5   11 d         -16.093 205.026 116.940  0.00  0.00     0.217 HD
ENDBRANCH   6  22
TORSDOF 4
ENDMDL
MODEL 4
REMARK VINA RESULT:      -7.8      2.305      4.043
REMARK  4 active torsions:
REMARK  status: ('A' for Active; 'I' for Inactive)
REMARK    1  A    between atoms: C1_1  and  C2_2 
REMARK    2  A    between atoms: C4_4  and  N1_5 
REMARK    3  A    between atoms: C5_6  and  C6_7 
REMARK    4  A    between atoms: C11_12  and  O1_13 
ROOT
ATOM      1  C6   11 d         -14.999 205.836 112.342  0.00  0.00     0.026 A 
ATOM      2  C7   11 d         -13.896 206.314 111.577  0.00  0.00    -0.011 A 
ATOM      3  C8   11 d         -14.143 206.997 110.350  0.00  0.00    -0.025 A 
ATOM      4  C9   11 d         -15.462 207.216 109.920  0.00  0.00     0.015 A 
ATOM      5  C10  11 d         -16.538 206.784 110.702  0.00  0.00     0.038 A 
ATOM      6  C11  11 d         -16.316 206.128 111.918  0.00  0.00     0.078 A 
ATOM      7  C12  11 d         -13.065 207.461 109.570  0.00  0.00     0.012 A 
ATOM      8  C13  11 d         -11.747 207.269 110.002  0.00  0.00     0.001 A 
ATOM      9  C14  11 d         -11.494 206.624 111.217  0.00  0.00     0.001 A 
ATOM     10  C15  11 d         -12.556 206.156 112.003  0.00  0.00     0.013 A 
ENDROOT
BRANCH   1  11
ATOM     11  C5   11 d         -14.853 205.043 113.601  0.00  0.00     0.132 C 
ATOM     12  N1   11 d         -14.494 205.498 114.786  0.00  0.00    -0.260 NA
BRANCH  12  13
ATOM     13  C4   11 d         -14.031 206.853 115.000  0.00  0.00     0.057 A 
ATOM     14  C3   11 d         -12.668 207.037 115.294  0.00  0.00     0.046 A 
ATOM     15  C2   11 d         -12.129 208.329 115.484  0.00  0.00     0.011 A 
ATOM     16  C18  11 d         -12.990 209.442 115.372  0.00  0.00     0.015 A 
ATOM     17  C17  11 d         -14.345 209.269 115.058  0.00  0.00     0.003 A 
ATOM     18  C16  11 d         -14.862 207.982 114.859  0.00  0.00     0.031 A 
BRANCH  15  19
ATOM     19  C1   11 d         -10.679 208.494 115.807  0.00  0.00     0.155 C 
ATOM     20  O2   11 d          -9.898 208.964 114.939  0.00  0.00    -0.293 OA
ATOM     21  C19  11 d         -10.134 208.261 117.188  0.00  0.00     0.096 C 
ENDBRANCH  15  19
ENDBRANCH  12  13
ENDBRANCH   1  11
BRANCH   6  22
ATOM     22  O1   11 d         -17.438 205.643 112.633  0.00  0.00    -0.360 OA
ATOM     23  H5   11 d         -18.224 206.254 112.353  0.00  0.00     0.217 HD
ENDBRANCH   6  22
TORSDOF 4
ENDMDL
MODEL 5
REMARK VINA RESULT:      -7.5      1.915      6.615
REMARK  4 active torsions:
REMARK  status: ('A' for Active; 'I' for Inactive)
REMARK    1  A    between atoms: C1_1  and  C2_2 
REMARK    2  A    between atoms: C4_4  and  N1_5 
REMARK    3  A    between atoms: C5_6  and  C6_7 
REMARK    4  A    between atoms: C11_12  and  O1_13 
ROOT
ATOM      1  C6   11 d         -13.255 207.386 116.768  0.00  0.00     0.026 A 
ATOM      2  C7   11 d         -12.064 207.365 117.550  0.00  0.00    -0.011 A 
ATOM      3  C8   11 d         -11.667 206.152 118.185  0.00  0.00    -0.025 A 
ATOM      4  C9   11 d         -12.434 204.987 118.016  0.00  0.00     0.015 A 
ATOM      5  C10  11 d         -13.575 205.007 117.209  0.00  0.00     0.038 A 
ATOM      6  C11  11 d         -13.969 206.184 116.562  0.00  0.00     0.078 A 
ATOM      7  C12  11 d         -10.502 206.116 118.976  0.00  0.00     0.012 A 
ATOM      8  C13  11 d          -9.718 207.266 119.131  0.00  0.00     0.001 A 
ATOM      9  C14  11 d         -10.083 208.455 118.491  0.00  0.00     0.001 A 
ATOM     10  C15  11 d         -11.239 208.506 117.701  0.00  0.00     0.013 A 
ENDROOT
BRANCH   1  11
ATOM     11  C5   11 d         -13.802 208.619 116.124  0.00  0.00     0.132 C 
ATOM     12  N1   11 d         -13.823 208.894 114.834  0.00  0.00    -0.260 NA
BRANCH  12  13
ATOM     13  C4   11 d         -13.156 208.074 113.844  0.00  0.00     0.057 A 
ATOM     14  C3   11 d         -13.943 207.525 112.816  0.00  0.00     0.046 A 
ATOM     15  C2   11 d         -13.365 206.739 111.793  0.00  0.00     0.011 A 
ATOM     16  C18  11 d         -11.971 206.515 111.820  0.00  0.00     0.015 A 
ATOM     17  C17  11 d         -11.177 207.077 112.830  0.00  0.00     0.003 A 
ATOM     18  C16  11 d         -11.763 207.864 113.830  0.00  0.00     0.031 A 
BRANCH  15  19
ATOM     19  C1   11 d         -14.227 206.159 110.718  0.00  0.00     0.155 C 
ATOM     20  O2   11 d         -14.387 204.913 110.655  0.00  0.00    -0.293 OA
ATOM     21  C19  11 d         -15.038 207.019 109.791  0.00  0.00     0.096 C 
ENDBRANCH  15  19
ENDBRANCH  12  13
ENDBRANCH   1  11
BRANCH   6  22
ATOM     22  O1   11 d         -15.175 206.169 115.819  0.00  0.00    -0.360 OA
ATOM     23  H5   11 d         -15.836 205.608 116.384  0.00  0.00     0.217 HD
ENDBRANCH   6  22
TORSDOF 4
ENDMDL
MODEL 6
REMARK VINA RESULT:      -7.4      1.417      2.980
REMARK  4 active torsions:
REMARK  status: ('A' for Active; 'I' for Inactive)
REMARK    1  A    between atoms: C1_1  and  C2_2 
REMARK    2  A    between atoms: C4_4  and  N1_5 
REMARK    3  A    between atoms: C5_6  and  C6_7 
REMARK    4  A    between atoms: C11_12  and  O1_13 
ROOT
ATOM      1  C6   11 d         -13.833 207.936 113.861  0.00  0.00     0.026 A 
ATOM      2  C7   11 d         -12.418 208.031 113.729  0.00  0.00    -0.011 A 
ATOM      3  C8   11 d         -11.771 207.357 112.652  0.00  0.00    -0.025 A 
ATOM      4  C9   11 d         -12.531 206.630 111.720  0.00  0.00     0.015 A 
ATOM      5  C10  11 d         -13.924 206.582 111.832  0.00  0.00     0.038 A 
ATOM      6  C11  11 d         -14.578 207.254 112.871  0.00  0.00     0.078 A 
ATOM      7  C12  11 d         -10.371 207.423 112.515  0.00  0.00     0.012 A 
ATOM      8  C13  11 d          -9.607 208.165 113.424  0.00  0.00     0.001 A 
ATOM      9  C14  11 d         -10.233 208.853 114.469  0.00  0.00     0.001 A 
ATOM     10  C15  11 d         -11.626 208.795 114.618  0.00  0.00     0.013 A 
ENDROOT
BRANCH   1  11
ATOM     11  C5   11 d         -14.603 208.539 114.992  0.00  0.00     0.132 C 
ATOM     12  N1   11 d         -14.562 208.175 116.259  0.00  0.00    -0.260 NA
BRANCH  12  13
ATOM     13  C4   11 d         -13.851 206.999 116.717  0.00  0.00     0.057 A 
ATOM     14  C3   11 d         -12.731 207.196 117.543  0.00  0.00     0.046 A 
ATOM     15  C2   11 d         -12.001 206.101 118.058  0.00  0.00     0.011 A 
ATOM     16  C18  11 d         -12.422 204.794 117.727  0.00  0.00     0.015 A 
ATOM     17  C17  11 d         -13.551 204.590 116.921  0.00  0.00     0.003 A 
ATOM     18  C16  11 d         -14.271 205.686 116.429  0.00  0.00     0.031 A 
BRANCH  15  19
ATOM     19  C1   11 d         -10.807 206.339 118.926  0.00  0.00     0.155 C 
ATOM     20  O2   11 d         -10.462 205.464 119.762  0.00  0.00    -0.293 OA
ATOM     21  C19  11 d          -9.904 207.525 118.736  0.00  0.00     0.096 C 
ENDBRANCH  15  19
ENDBRANCH  12  13
ENDBRANCH   1  11
BRANCH   6  22
ATOM     22  O1   11 d         -15.982 207.110 112.984  0.00  0.00    -0.360 OA
ATOM     23  H5   11 d         -16.129 206.152 113.347  0.00  0.00     0.217 HD
ENDBRANCH   6  22
TORSDOF 4
ENDMDL
MODEL 7
REMARK VINA RESULT:      -7.2      2.400      3.568
REMARK  4 active torsions:
REMARK  status: ('A' for Active; 'I' for Inactive)
REMARK    1  A    between atoms: C1_1  and  C2_2 
REMARK    2  A    between atoms: C4_4  and  N1_5 
REMARK    3  A    between atoms: C5_6  and  C6_7 
REMARK    4  A    between atoms: C11_12  and  O1_13 
ROOT
ATOM      1  C6   11 d         -12.680 206.653 111.047  0.00  0.00     0.026 A 
ATOM      2  C7   11 d         -14.015 206.288 111.385  0.00  0.00    -0.011 A 
ATOM      3  C8   11 d         -15.097 206.822 110.626  0.00  0.00    -0.025 A 
ATOM      4  C9   11 d         -14.841 207.677 109.542  0.00  0.00     0.015 A 
ATOM      5  C10  11 d         -13.525 207.992 109.190  0.00  0.00     0.038 A 
ATOM      6  C11  11 d         -12.449 207.462 109.911  0.00  0.00     0.078 A 
ATOM      7  C12  11 d         -16.425 206.487 110.956  0.00  0.00     0.012 A 
ATOM      8  C13  11 d         -16.690 205.616 112.020  0.00  0.00     0.001 A 
ATOM      9  C14  11 d         -15.635 205.065 112.755  0.00  0.00     0.001 A 
ATOM     10  C15  11 d         -14.308 205.390 112.438  0.00  0.00     0.013 A 
ENDROOT
BRANCH   1  11
ATOM     11  C5   11 d         -11.479 206.214 111.821  0.00  0.00     0.132 C 
ATOM     12  N1   11 d         -11.316 206.272 113.129  0.00  0.00    -0.260 NA
BRANCH  12  13
ATOM     13  C4   11 d         -12.256 206.933 114.010  0.00  0.00     0.057 A 
ATOM     14  C3   11 d         -12.627 206.262 115.188  0.00  0.00     0.046 A 
ATOM     15  C2   11 d         -13.515 206.852 116.117  0.00  0.00     0.011 A 
ATOM     16  C18  11 d         -14.025 208.138 115.839  0.00  0.00     0.015 A 
ATOM     17  C17  11 d         -13.643 208.822 114.676  0.00  0.00     0.003 A 
ATOM     18  C16  11 d         -12.752 208.230 113.772  0.00  0.00     0.031 A 
BRANCH  15  19
ATOM     19  C1   11 d         -13.901 206.111 117.357  0.00  0.00     0.155 C 
ATOM     20  O2   11 d         -14.134 206.749 118.415  0.00  0.00    -0.293 OA
ATOM     21  C19  11 d         -14.172 204.633 117.354  0.00  0.00     0.096 C 
ENDBRANCH  15  19
ENDBRANCH  12  13
ENDBRANCH   1  11
BRANCH   6  22
ATOM     22  O1   11 d         -11.140 207.874 109.561  0.00  0.00    -0.360 OA
ATOM     23  H5   11 d         -11.269 208.681 108.927  0.00  0.00     0.217 HD
ENDBRANCH   6  22
TORSDOF 4
ENDMDL
MODEL 8
REMARK VINA RESULT:      -7.1      1.943      5.767
REMARK  4 active torsions:
REMARK  status: ('A' for Active; 'I' for Inactive)
REMARK    1  A    between atoms: C1_1  and  C2_2 
REMARK    2  A    between atoms: C4_4  and  N1_5 
REMARK    3  A    between atoms: C5_6  and  C6_7 
REMARK    4  A    between atoms: C11_12  and  O1_13 
ROOT
ATOM      1  C6   11 d         -13.784 206.911 116.408  0.00  0.00     0.026 A 
ATOM      2  C7   11 d         -12.610 206.999 117.210  0.00  0.00    -0.011 A 
ATOM      3  C8   11 d         -12.109 205.825 117.846  0.00  0.00    -0.025 A 
ATOM      4  C9   11 d         -12.758 204.593 117.658  0.00  0.00     0.015 A 
ATOM      5  C10  11 d         -13.883 204.509 116.832  0.00  0.00     0.038 A 
ATOM      6  C11  11 d         -14.377 205.647 116.184  0.00  0.00     0.078 A 
ATOM      7  C12  11 d         -10.959 205.896 118.657  0.00  0.00     0.012 A 
ATOM      8  C13  11 d         -10.292 207.114 118.830  0.00  0.00     0.001 A 
ATOM      9  C14  11 d         -10.758 208.268 118.190  0.00  0.00     0.001 A 
ATOM     10  C15  11 d         -11.901 208.212 117.380  0.00  0.00     0.013 A 
ENDROOT
BRANCH   1  11
ATOM     11  C5   11 d         -14.436 208.089 115.760  0.00  0.00     0.132 C 
ATOM     12  N1   11 d         -14.254 208.514 114.525  0.00  0.00    -0.260 NA
BRANCH  12  13
ATOM     13  C4   11 d         -13.245 207.962 113.645  0.00  0.00     0.057 A 
ATOM     14  C3   11 d         -11.922 208.409 113.809  0.00  0.00     0.046 A 
ATOM     15  C2   11 d         -10.873 207.897 113.013  0.00  0.00     0.011 A 
ATOM     16  C18  11 d         -11.179 206.919 112.042  0.00  0.00     0.015 A 
ATOM     17  C17  11 d         -12.492 206.453 111.886  0.00  0.00     0.003 A 
ATOM     18  C16  11 d         -13.519 206.961 112.692  0.00  0.00     0.031 A 
BRANCH  15  19
ATOM     19  C1   11 d          -9.477 208.398 113.202  0.00  0.00     0.155 C 
ATOM     20  O2   11 d          -9.076 208.700 114.356  0.00  0.00    -0.293 OA
ATOM     21  C19  11 d          -8.474 208.415 112.083  0.00  0.00     0.096 C 
ENDBRANCH  15  19
ENDBRANCH  12  13
ENDBRANCH   1  11
BRANCH   6  22
ATOM     22  O1   11 d         -15.563 205.522 115.421  0.00  0.00    -0.360 OA
ATOM     23  H5   11 d         -15.349 204.814 114.698  0.00  0.00     0.217 HD
ENDBRANCH   6  22
TORSDOF 4
ENDMDL
MODEL 9
REMARK VINA RESULT:      -7.1      2.403      5.000
REMARK  4 active torsions:
REMARK  status: ('A' for Active; 'I' for Inactive)
REMARK    1  A    between atoms: C1_1  and  C2_2 
REMARK    2  A    between atoms: C4_4  and  N1_5 
REMARK    3  A    between atoms: C5_6  and  C6_7 
REMARK    4  A    between atoms: C11_12  and  O1_13 
ROOT
ATOM      1  C6   11 d         -10.236 207.742 114.613  0.00  0.00     0.026 A 
ATOM      2  C7   11 d         -10.581 207.570 113.241  0.00  0.00    -0.011 A 
ATOM      3  C8   11 d         -10.097 208.503 112.278  0.00  0.00    -0.025 A 
ATOM      4  C9   11 d          -9.268 209.564 112.681  0.00  0.00     0.015 A 
ATOM      5  C10  11 d          -8.898 209.696 114.023  0.00  0.00     0.038 A 
ATOM      6  C11  11 d          -9.348 208.778 114.979  0.00  0.00     0.078 A 
ATOM      7  C12  11 d         -10.442 208.360 110.919  0.00  0.00     0.012 A 
ATOM      8  C13  11 d         -11.248 207.293 110.504  0.00  0.00     0.001 A 
ATOM      9  C14  11 d         -11.706 206.356 111.436  0.00  0.00     0.001 A 
ATOM     10  C15  11 d         -11.371 206.486 112.791  0.00  0.00     0.013 A 
ENDROOT
BRANCH   1  11
ATOM     11  C5   11 d         -10.750 206.869 115.712  0.00  0.00     0.132 C 
ATOM     12  N1   11 d         -12.011 206.585 115.973  0.00  0.00    -0.260 NA
BRANCH  12  13
ATOM     13  C4   11 d         -13.118 207.226 115.295  0.00  0.00     0.057 A 
ATOM     14  C3   11 d         -13.947 206.420 114.495  0.00  0.00     0.046 A 
ATOM     15  C2   11 d         -15.067 206.961 113.825  0.00  0.00     0.011 A 
ATOM     16  C18  11 d         -15.343 208.337 113.974  0.00  0.00     0.015 A 
ATOM     17  C17  11 d         -14.533 209.143 114.787  0.00  0.00     0.003 A 
ATOM     18  C16  11 d         -13.434 208.590 115.456  0.00  0.00     0.031 A 
BRANCH  15  19
ATOM     19  C1   11 d         -15.925 206.082 112.972  0.00  0.00     0.155 C 
ATOM     20  O2   11 d         -17.090 205.795 113.350  0.00  0.00    -0.293 OA
ATOM     21  C19  11 d         -15.505 205.645 111.597  0.00  0.00     0.096 C 
ENDBRANCH  15  19
ENDBRANCH  12  13
ENDBRANCH   1  11
BRANCH   6  22
ATOM     22  O1   11 d          -9.007 209.002 116.335  0.00  0.00    -0.360 OA
ATOM     23  H5   11 d          -8.786 208.067 116.719  0.00  0.00     0.217 HD
ENDBRANCH   6  22
TORSDOF 4
ENDMDL
MODEL 10
REMARK VINA RESULT:      -7.1      5.252      8.538
REMARK  4 active torsions:
REMARK  status: ('A' for Active; 'I' for Inactive)
REMARK    1  A    between atoms: C1_1  and  C2_2 
REMARK    2  A    between atoms: C4_4  and  N1_5 
REMARK    3  A    between atoms: C5_6  and  C6_7 
REMARK    4  A    between atoms: C11_12  and  O1_13 
ROOT
ATOM      1  C6   11 d          -5.624 208.862 116.042  0.00  0.00     0.026 A 
ATOM      2  C7   11 d          -4.584 208.136 115.393  0.00  0.00    -0.011 A 
ATOM      3  C8   11 d          -4.269 206.819 115.838  0.00  0.00    -0.025 A 
ATOM      4  C9   11 d          -4.999 206.239 116.889  0.00  0.00     0.015 A 
ATOM      5  C10  11 d          -6.049 206.942 117.488  0.00  0.00     0.038 A 
ATOM      6  C11  11 d          -6.385 208.229 117.051  0.00  0.00     0.078 A 
ATOM      7  C12  11 d          -3.232 206.092 115.221  0.00  0.00     0.012 A 
ATOM      8  C13  11 d          -2.515 206.652 114.157  0.00  0.00     0.001 A 
ATOM      9  C14  11 d          -2.832 207.933 113.693  0.00  0.00     0.001 A 
ATOM     10  C15  11 d          -3.861 208.668 114.298  0.00  0.00     0.013 A 
ENDROOT
BRANCH   1  11
ATOM     11  C5   11 d          -5.984 210.273 115.707  0.00  0.00     0.132 C 
ATOM     12  N1   11 d          -6.949 210.674 114.903  0.00  0.00    -0.260 NA
BRANCH  12  13
ATOM     13  C4   11 d          -7.723 209.761 114.088  0.00  0.00     0.057 A 
ATOM     14  C3   11 d          -8.992 209.382 114.559  0.00  0.00     0.046 A 
ATOM     15  C2   11 d          -9.824 208.521 113.809  0.00  0.00     0.011 A 
ATOM     16  C18  11 d          -9.355 208.043 112.566  0.00  0.00     0.015 A 
ATOM     17  C17  11 d          -8.099 208.433 112.079  0.00  0.00     0.003 A 
ATOM     18  C16  11 d          -7.291 209.299 112.829  0.00  0.00     0.031 A 
BRANCH  15  19
ATOM     19  C1   11 d         -11.165 208.125 114.340  0.00  0.00     0.155 C 
ATOM     20  O2   11 d         -11.562 208.595 115.438  0.00  0.00    -0.293 OA
ATOM     21  C19  11 d         -12.131 207.300 113.538  0.00  0.00     0.096 C 
ENDBRANCH  15  19
ENDBRANCH  12  13
ENDBRANCH   1  11
BRANCH   6  22
ATOM     22  O1   11 d          -7.405 208.927 117.743  0.00  0.00    -0.360 OA
ATOM     23  H5   11 d          -7.825 209.561 117.041  0.00  0.00     0.217 HD
ENDBRANCH   6  22
TORSDOF 4
ENDMDL
MODEL 11
REMARK VINA RESULT:      -7.1      5.128      8.296
REMARK  4 active torsions:
REMARK  status: ('A' for Active; 'I' for Inactive)
REMARK    1  A    between atoms: C1_1  and  C2_2 
REMARK    2  A    between atoms: C4_4  and  N1_5 
REMARK    3  A    between atoms: C5_6  and  C6_7 
REMARK    4  A    between atoms: C11_12  and  O1_13 
ROOT
ATOM      1  C6   11 d          -5.030 209.098 115.090  0.00  0.00     0.026 A 
ATOM      2  C7   11 d          -5.178 208.049 116.043  0.00  0.00    -0.011 A 
ATOM      3  C8   11 d          -4.533 206.799 115.812  0.00  0.00    -0.025 A 
ATOM      4  C9   11 d          -3.739 206.620 114.666  0.00  0.00     0.015 A 
ATOM      5  C10  11 d          -3.562 207.671 113.761  0.00  0.00     0.038 A 
ATOM      6  C11  11 d          -4.172 208.911 113.982  0.00  0.00     0.078 A 
ATOM      7  C12  11 d          -4.682 205.744 116.733  0.00  0.00     0.012 A 
ATOM      8  C13  11 d          -5.452 205.921 117.889  0.00  0.00     0.001 A 
ATOM      9  C14  11 d          -6.068 207.152 118.141  0.00  0.00     0.001 A 
ATOM     10  C15  11 d          -5.928 208.210 117.233  0.00  0.00     0.013 A 
ENDROOT
BRANCH   1  11
ATOM     11  C5   11 d          -5.722 210.418 115.196  0.00  0.00     0.132 C 
ATOM     12  N1   11 d          -6.956 210.697 114.820  0.00  0.00    -0.260 NA
BRANCH  12  13
ATOM     13  C4   11 d          -7.785 209.762 114.088  0.00  0.00     0.057 A 
ATOM     14  C3   11 d          -8.970 209.323 114.703  0.00  0.00     0.046 A 
ATOM     15  C2   11 d          -9.851 208.436 114.044  0.00  0.00     0.011 A 
ATOM     16  C18  11 d          -9.517 207.995 112.745  0.00  0.00     0.015 A 
ATOM     17  C17  11 d          -8.347 208.445 112.117  0.00  0.00     0.003 A 
ATOM     18  C16  11 d          -7.491 209.334 112.778  0.00  0.00     0.031 A 
BRANCH  15  19
ATOM     19  C1   11 d         -11.100 207.977 114.726  0.00  0.00     0.155 C 
ATOM     20  O2   11 d         -11.324 208.325 115.915  0.00  0.00    -0.293 OA
ATOM     21  C19  11 d         -12.183 207.234 113.996  0.00  0.00     0.096 C 
ENDBRANCH  15  19
ENDBRANCH  12  13
ENDBRANCH   1  11
BRANCH   6  22
ATOM     22  O1   11 d          -4.023 209.916 112.996  0.00  0.00    -0.360 OA
ATOM     23  H5   11 d          -4.443 210.767 113.409  0.00  0.00     0.217 HD
ENDBRANCH   6  22
TORSDOF 4
ENDMDL
MODEL 12
REMARK VINA RESULT:      -7.1      7.386      9.883
REMARK  4 active torsions:
REMARK  status: ('A' for Active; 'I' for Inactive)
REMARK    1  A    between atoms: C1_1  and  C2_2 
REMARK    2  A    between atoms: C4_4  and  N1_5 
REMARK    3  A    between atoms: C5_6  and  C6_7 
REMARK    4  A    between atoms: C11_12  and  O1_13 
ROOT
ATOM      1  C6   11 d         -19.406 205.279 122.417  0.00  0.00     0.026 A 
ATOM      2  C7   11 d         -19.961 204.099 122.991  0.00  0.00    -0.011 A 
ATOM      3  C8   11 d         -20.674 203.187 122.158  0.00  0.00    -0.025 A 
ATOM      4  C9   11 d         -20.801 203.443 120.783  0.00  0.00     0.015 A 
ATOM      5  C10  11 d         -20.213 204.580 120.221  0.00  0.00     0.038 A 
ATOM      6  C11  11 d         -19.493 205.477 121.019  0.00  0.00     0.078 A 
ATOM      7  C12  11 d         -21.245 202.023 122.710  0.00  0.00     0.012 A 
ATOM      8  C13  11 d         -21.103 201.747 124.076  0.00  0.00     0.001 A 
ATOM      9  C14  11 d         -20.383 202.621 124.897  0.00  0.00     0.001 A 
ATOM     10  C15  11 d         -19.810 203.782 124.362  0.00  0.00     0.013 A 
ENDROOT
BRANCH   1  11
ATOM     11  C5   11 d         -18.708 206.337 123.209  0.00  0.00     0.132 C 
ATOM     12  N1   11 d         -17.407 206.548 123.272  0.00  0.00    -0.260 NA
BRANCH  12  13
ATOM     13  C4   11 d         -16.435 205.654 122.678  0.00  0.00     0.057 A 
ATOM     14  C3   11 d         -15.780 206.087 121.512  0.00  0.00     0.046 A 
ATOM     15  C2   11 d         -14.795 205.288 120.888  0.00  0.00     0.011 A 
ATOM     16  C18  11 d         -14.477 204.038 121.462  0.00  0.00     0.015 A 
ATOM     17  C17  11 d         -15.111 203.609 122.636  0.00  0.00     0.003 A 
ATOM     18  C16  11 d         -16.076 204.418 123.251  0.00  0.00     0.031 A 
BRANCH  15  19
ATOM     19  C1   11 d         -14.121 205.768 119.643  0.00  0.00     0.155 C 
ATOM     20  O2   11 d         -13.405 206.802 119.682  0.00  0.00    -0.293 OA
ATOM     21  C19  11 d         -14.142 204.976 118.366  0.00  0.00     0.096 C 
ENDBRANCH  15  19
ENDBRANCH  12  13
ENDBRANCH   1  11
BRANCH   6  22
ATOM     22  O1   11 d         -18.983 206.652 120.416  0.00  0.00    -0.360 OA
ATOM     23  H5   11 d         -17.998 206.435 120.187  0.00  0.00     0.217 HD
ENDBRANCH   6  22
TORSDOF 4
ENDMDL
MODEL 13
REMARK VINA RESULT:      -7.0      2.376      3.576
REMARK  4 active torsions:
REMARK  status: ('A' for Active; 'I' for Inactive)
REMARK    1  A    between atoms: C1_1  and  C2_2 
REMARK    2  A    between atoms: C4_4  and  N1_5 
REMARK    3  A    between atoms: C5_6  and  C6_7 
REMARK    4  A    between atoms: C11_12  and  O1_13 
ROOT
ATOM      1  C6   11 d         -12.628 207.583 115.587  0.00  0.00     0.026 A 
ATOM      2  C7   11 d         -12.542 207.254 114.203  0.00  0.00    -0.011 A 
ATOM      3  C8   11 d         -13.675 207.470 113.364  0.00  0.00    -0.025 A 
ATOM      4  C9   11 d         -14.850 208.026 113.897  0.00  0.00     0.015 A 
ATOM      5  C10  11 d         -14.906 208.388 115.246  0.00  0.00     0.038 A 
ATOM      6  C11  11 d         -13.799 208.202 116.081  0.00  0.00     0.078 A 
ATOM      7  C12  11 d         -13.616 207.133 111.997  0.00  0.00     0.012 A 
ATOM      8  C13  11 d         -12.442 206.601 111.451  0.00  0.00     0.001 A 
ATOM      9  C14  11 d         -11.316 206.410 112.259  0.00  0.00     0.001 A 
ATOM     10  C15  11 d         -11.360 206.740 113.620  0.00  0.00     0.013 A 
ENDROOT
BRANCH   1  11
ATOM     11  C5   11 d         -11.530 207.328 116.569  0.00  0.00     0.132 C 
ATOM     12  N1   11 d         -11.497 206.385 117.491  0.00  0.00    -0.260 NA
BRANCH  12  13
ATOM     13  C4   11 d         -12.630 205.533 117.785  0.00  0.00     0.057 A 
ATOM     14  C3   11 d         -13.307 205.745 118.999  0.00  0.00     0.046 A 
ATOM     15  C2   11 d         -14.443 204.979 119.346  0.00  0.00     0.011 A 
ATOM     16  C18  11 d         -14.889 203.988 118.445  0.00  0.00     0.015 A 
ATOM     17  C17  11 d         -14.232 203.785 117.224  0.00  0.00     0.003 A 
ATOM     18  C16  11 d         -13.116 204.562 116.887  0.00  0.00     0.031 A 
BRANCH  15  19
ATOM     19  C1   11 d         -15.137 205.218 120.649  0.00  0.00     0.155 C 
ATOM     20  O2   11 d         -15.793 204.287 121.184  0.00  0.00    -0.293 OA
ATOM     21  C19  11 d         -14.960 206.491 121.428  0.00  0.00     0.096 C 
ENDBRANCH  15  19
ENDBRANCH  12  13
ENDBRANCH   1  11
BRANCH   6  22
ATOM     22  O1   11 d         -13.935 208.515 117.456  0.00  0.00    -0.360 OA
ATOM     23  H5   11 d         -13.212 207.951 117.936  0.00  0.00     0.217 HD
ENDBRANCH   6  22
TORSDOF 4
ENDMDL
MODEL 14
REMARK VINA RESULT:      -6.9      2.368      3.757
REMARK  4 active torsions:
REMARK  status: ('A' for Active; 'I' for Inactive)
REMARK    1  A    between atoms: C1_1  and  C2_2 
REMARK    2  A    between atoms: C4_4  and  N1_5 
REMARK    3  A    between atoms: C5_6  and  C6_7 
REMARK    4  A    between atoms: C11_12  and  O1_13 
ROOT
ATOM      1  C6   11 d         -14.601 207.168 113.295  0.00  0.00     0.026 A 
ATOM      2  C7   11 d         -13.315 207.168 112.683  0.00  0.00    -0.011 A 
ATOM      3  C8   11 d         -13.038 206.235 111.641  0.00  0.00    -0.025 A 
ATOM      4  C9   11 d         -14.037 205.345 111.211  0.00  0.00     0.015 A 
ATOM      5  C10  11 d         -15.310 205.385 111.787  0.00  0.00     0.038 A 
ATOM      6  C11  11 d         -15.606 206.308 112.797  0.00  0.00     0.078 A 
ATOM      7  C12  11 d         -11.766 206.207 111.036  0.00  0.00     0.012 A 
ATOM      8  C13  11 d         -10.772 207.106 111.441  0.00  0.00     0.001 A 
ATOM      9  C14  11 d         -11.040 208.044 112.443  0.00  0.00     0.001 A 
ATOM     10  C15  11 d         -12.301 208.083 113.055  0.00  0.00     0.013 A 
ENDROOT
BRANCH   1  11
ATOM     11  C5   11 d         -14.972 208.050 114.444  0.00  0.00     0.132 C 
ATOM     12  N1   11 d         -14.627 207.891 115.707  0.00  0.00    -0.260 NA
BRANCH  12  13
ATOM     13  C4   11 d         -13.939 206.712 116.191  0.00  0.00     0.057 A 
ATOM     14  C3   11 d         -14.723 205.669 116.714  0.00  0.00     0.046 A 
ATOM     15  C2   11 d         -14.133 204.472 117.178  0.00  0.00     0.011 A 
ATOM     16  C18  11 d         -12.729 204.340 117.105  0.00  0.00     0.015 A 
ATOM     17  C17  11 d         -11.942 205.368 116.566  0.00  0.00     0.003 A 
ATOM     18  C16  11 d         -12.543 206.543 116.098  0.00  0.00     0.031 A 
BRANCH  15  19
ATOM     19  C1   11 d         -14.990 203.383 117.738  0.00  0.00     0.155 C 
ATOM     20  O2   11 d         -15.237 202.365 117.041  0.00  0.00    -0.293 OA
ATOM     21  C19  11 d         -15.451 203.384 119.169  0.00  0.00     0.096 C 
ENDBRANCH  15  19
ENDBRANCH  12  13
ENDBRANCH   1  11
BRANCH   6  22
ATOM     22  O1   11 d         -16.886 206.255 113.399  0.00  0.00    -0.360 OA
ATOM     23  H5   11 d         -17.263 207.216 113.324  0.00  0.00     0.217 HD
ENDBRANCH   6  22
TORSDOF 4
ENDMDL
MODEL 15
REMARK VINA RESULT:      -6.7      4.688      6.711
REMARK  4 active torsions:
REMARK  status: ('A' for Active; 'I' for Inactive)
REMARK    1  A    between atoms: C1_1  and  C2_2 
REMARK    2  A    between atoms: C4_4  and  N1_5 
REMARK    3  A    between atoms: C5_6  and  C6_7 
REMARK    4  A    between atoms: C11_12  and  O1_13 
ROOT
ATOM      1  C6   11 d          -6.228 209.791 114.328  0.00  0.00     0.026 A 
ATOM      2  C7   11 d          -7.532 209.310 114.015  0.00  0.00    -0.011 A 
ATOM      3  C8   11 d          -7.724 208.534 112.835  0.00  0.00    -0.025 A 
ATOM      4  C9   11 d          -6.630 208.229 112.008  0.00  0.00     0.015 A 
ATOM      5  C10  11 d          -5.347 208.666 112.349  0.00  0.00     0.038 A 
ATOM      6  C11  11 d          -5.135 209.413 113.514  0.00  0.00     0.078 A 
ATOM      7  C12  11 d          -9.009 208.065 112.498  0.00  0.00     0.012 A 
ATOM      8  C13  11 d         -10.102 208.344 113.329  0.00  0.00     0.001 A 
ATOM      9  C14  11 d          -9.920 209.081 114.504  0.00  0.00     0.001 A 
ATOM     10  C15  11 d          -8.648 209.555 114.850  0.00  0.00     0.013 A 
ENDROOT
BRANCH   1  11
ATOM     11  C5   11 d          -5.928 210.675 115.496  0.00  0.00     0.132 C 
ATOM     12  N1   11 d          -5.634 210.291 116.723  0.00  0.00    -0.260 NA
BRANCH  12  13
ATOM     13  C4   11 d          -5.713 208.911 117.156  0.00  0.00     0.057 A 
ATOM     14  C3   11 d          -6.888 208.500 117.808  0.00  0.00     0.046 A 
ATOM     15  C2   11 d          -7.058 207.163 118.233  0.00  0.00     0.011 A 
ATOM     16  C18  11 d          -6.019 206.239 117.987  0.00  0.00     0.015 A 
ATOM     17  C17  11 d          -4.853 206.637 117.318  0.00  0.00     0.003 A 
ATOM     18  C16  11 d          -4.705 207.963 116.891  0.00  0.00     0.031 A 
BRANCH  15  19
ATOM     19  C1   11 d          -8.314 206.755 118.935  0.00  0.00     0.155 C 
ATOM     20  O2   11 d          -8.254 205.944 119.896  0.00  0.00    -0.293 OA
ATOM     21  C19  11 d          -9.641 207.392 118.635  0.00  0.00     0.096 C 
ENDBRANCH  15  19
ENDBRANCH  12  13
ENDBRANCH   1  11
BRANCH   6  22
ATOM     22  O1   11 d          -3.830 209.897 113.772  0.00  0.00    -0.360 OA
ATOM     23  H5   11 d          -3.958 210.694 114.419  0.00  0.00     0.217 HD
ENDBRANCH   6  22
TORSDOF 4
ENDMDL
MODEL 16
REMARK VINA RESULT:      -6.6      1.712      2.382
REMARK  4 active torsions:
REMARK  status: ('A' for Active; 'I' for Inactive)
REMARK    1  A    between atoms: C1_1  and  C2_2 
REMARK    2  A    between atoms: C4_4  and  N1_5 
REMARK    3  A    between atoms: C5_6  and  C6_7 
REMARK    4  A    between atoms: C11_12  and  O1_13 
ROOT
ATOM      1  C6   11 d         -13.413 206.021 113.665  0.00  0.00     0.026 A 
ATOM      2  C7   11 d         -14.256 206.387 112.576  0.00  0.00    -0.011 A 
ATOM      3  C8   11 d         -13.667 206.718 111.320  0.00  0.00    -0.025 A 
ATOM      4  C9   11 d         -12.273 206.658 111.159  0.00  0.00     0.015 A 
ATOM      5  C10  11 d         -11.459 206.253 112.222  0.00  0.00     0.038 A 
ATOM      6  C11  11 d         -12.020 205.904 113.456  0.00  0.00     0.078 A 
ATOM      7  C12  11 d         -14.482 207.100 110.236  0.00  0.00     0.012 A 
ATOM      8  C13  11 d         -15.874 207.140 110.380  0.00  0.00     0.001 A 
ATOM      9  C14  11 d         -16.465 206.791 111.599  0.00  0.00     0.001 A 
ATOM     10  C15  11 d         -15.666 206.410 112.686  0.00  0.00     0.013 A 
ENDROOT
BRANCH   1  11
ATOM     11  C5   11 d         -13.918 205.730 115.042  0.00  0.00     0.132 C 
ATOM     12  N1   11 d         -13.581 206.350 116.156  0.00  0.00    -0.260 NA
BRANCH  12  13
ATOM     13  C4   11 d         -12.522 207.336 116.217  0.00  0.00     0.057 A 
ATOM     14  C3   11 d         -11.537 207.174 117.207  0.00  0.00     0.046 A 
ATOM     15  C2   11 d         -10.452 208.074 117.314  0.00  0.00     0.011 A 
ATOM     16  C18  11 d         -10.374 209.147 116.400  0.00  0.00     0.015 A 
ATOM     17  C17  11 d         -11.341 209.304 115.397  0.00  0.00     0.003 A 
ATOM     18  C16  11 d         -12.403 208.396 115.296  0.00  0.00     0.031 A 
BRANCH  15  19
ATOM     19  C1   11 d          -9.425 207.884 118.383  0.00  0.00     0.155 C 
ATOM     20  O2   11 d          -9.759 207.983 119.592  0.00  0.00    -0.293 OA
ATOM     21  C19  11 d          -8.027 207.426 118.077  0.00  0.00     0.096 C 
ENDBRANCH  15  19
ENDBRANCH  12  13
ENDBRANCH   1  11
BRANCH   6  22
ATOM     22  O1   11 d         -11.146 205.576 114.521  0.00  0.00    -0.360 OA
ATOM     23  H5   11 d         -11.463 204.650 114.857  0.00  0.00     0.217 HD
ENDBRANCH   6  22
TORSDOF 4
ENDMDL
MODEL 17
REMARK VINA RESULT:      -6.5      4.276      6.611
REMARK  4 active torsions:
REMARK  status: ('A' for Active; 'I' for Inactive)
REMARK    1  A    between atoms: C1_1  and  C2_2 
REMARK    2  A    between atoms: C4_4  and  N1_5 
REMARK    3  A    between atoms: C5_6  and  C6_7 
REMARK    4  A    between atoms: C11_12  and  O1_13 
ROOT
ATOM      1  C6   11 d         -10.358 208.466 114.433  0.00  0.00     0.026 A 
ATOM      2  C7   11 d         -10.770 207.895 115.671  0.00  0.00    -0.011 A 
ATOM      3  C8   11 d         -11.333 206.585 115.682  0.00  0.00    -0.025 A 
ATOM      4  C9   11 d         -11.454 205.862 114.484  0.00  0.00     0.015 A 
ATOM      5  C10  11 d         -11.004 206.414 113.280  0.00  0.00     0.038 A 
ATOM      6  C11  11 d         -10.430 207.690 113.253  0.00  0.00     0.078 A 
ATOM      7  C12  11 d         -11.763 206.010 116.894  0.00  0.00     0.012 A 
ATOM      8  C13  11 d         -11.624 206.713 118.097  0.00  0.00     0.001 A 
ATOM      9  C14  11 d         -11.048 207.988 118.103  0.00  0.00     0.001 A 
ATOM     10  C15  11 d         -10.617 208.573 116.904  0.00  0.00     0.013 A 
ENDROOT
BRANCH   1  11
ATOM     11  C5   11 d          -9.827 209.857 114.297  0.00  0.00     0.132 C 
ATOM     12  N1   11 d          -8.559 210.219 114.262  0.00  0.00    -0.260 NA
BRANCH  12  13
ATOM     13  C4   11 d          -7.471 209.298 114.512  0.00  0.00     0.057 A 
ATOM     14  C3   11 d          -6.584 209.035 113.453  0.00  0.00     0.046 A 
ATOM     15  C2   11 d          -5.477 208.173 113.623  0.00  0.00     0.011 A 
ATOM     16  C18  11 d          -5.275 207.575 114.887  0.00  0.00     0.015 A 
ATOM     17  C17  11 d          -6.143 207.849 115.953  0.00  0.00     0.003 A 
ATOM     18  C16  11 d          -7.228 208.716 115.772  0.00  0.00     0.031 A 
BRANCH  15  19
ATOM     19  C1   11 d          -4.556 207.902 112.477  0.00  0.00     0.155 C 
ATOM     20  O2   11 d          -4.998 207.947 111.300  0.00  0.00    -0.293 OA
ATOM     21  C19  11 d          -3.075 207.725 112.665  0.00  0.00     0.096 C 
ENDBRANCH  15  19
ENDBRANCH  12  13
ENDBRANCH   1  11
BRANCH   6  22
ATOM     22  O1   11 d         -10.062 208.233 111.998  0.00  0.00    -0.360 OA
ATOM     23  H5   11 d          -9.161 207.783 111.760  0.00  0.00     0.217 HD
ENDBRANCH   6  22
TORSDOF 4
ENDMDL
MODEL 18
REMARK VINA RESULT:      -6.4      8.531     10.577
REMARK  4 active torsions:
REMARK  status: ('A' for Active; 'I' for Inactive)
REMARK    1  A    between atoms: C1_1  and  C2_2 
REMARK    2  A    between atoms: C4_4  and  N1_5 
REMARK    3  A    between atoms: C5_6  and  C6_7 
REMARK    4  A    between atoms: C11_12  and  O1_13 
ROOT
ATOM      1  C6   11 d         -19.271 205.358 122.522  0.00  0.00     0.026 A 
ATOM      2  C7   11 d         -19.857 204.220 123.148  0.00  0.00    -0.011 A 
ATOM      3  C8   11 d         -20.551 203.265 122.351  0.00  0.00    -0.025 A 
ATOM      4  C9   11 d         -20.631 203.436 120.958  0.00  0.00     0.015 A 
ATOM      5  C10  11 d         -20.013 204.532 120.348  0.00  0.00     0.038 A 
ATOM      6  C11  11 d         -19.309 205.470 121.113  0.00  0.00     0.078 A 
ATOM      7  C12  11 d         -21.153 202.143 122.954  0.00  0.00     0.012 A 
ATOM      8  C13  11 d         -21.059 201.951 124.338  0.00  0.00     0.001 A 
ATOM      9  C14  11 d         -20.356 202.867 125.128  0.00  0.00     0.001 A 
ATOM     10  C15  11 d         -19.753 203.988 124.541  0.00  0.00     0.013 A 
ENDROOT
BRANCH   1  11
ATOM     11  C5   11 d         -18.587 206.457 123.270  0.00  0.00     0.132 C 
ATOM     12  N1   11 d         -17.312 206.512 123.604  0.00  0.00    -0.260 NA
BRANCH  12  13
ATOM     13  C4   11 d         -16.401 205.403 123.414  0.00  0.00     0.057 A 
ATOM     14  C3   11 d         -16.097 204.610 124.534  0.00  0.00     0.046 A 
ATOM     15  C2   11 d         -15.242 203.490 124.428  0.00  0.00     0.011 A 
ATOM     16  C18  11 d         -14.694 203.178 123.164  0.00  0.00     0.015 A 
ATOM     17  C17  11 d         -15.009 203.952 122.038  0.00  0.00     0.003 A 
ATOM     18  C16  11 d         -15.869 205.051 122.158  0.00  0.00     0.031 A 
BRANCH  15  19
ATOM     19  C1   11 d         -14.928 202.671 125.638  0.00  0.00     0.155 C 
ATOM     20  O2   11 d         -13.728 202.431 125.932  0.00  0.00    -0.293 OA
ATOM     21  C19  11 d         -15.989 202.242 126.611  0.00  0.00     0.096 C 
ENDBRANCH  15  19
ENDBRANCH  12  13
ENDBRANCH   1  11
BRANCH   6  22
ATOM     22  O1   11 d         -18.768 206.601 120.455  0.00  0.00    -0.360 OA
ATOM     23  H5   11 d         -18.800 207.364 121.153  0.00  0.00     0.217 HD
ENDBRANCH   6  22
TORSDOF 4
ENDMDL
MODEL 19
REMARK VINA RESULT:      -6.4      7.849     10.483
REMARK  4 active torsions:
REMARK  status: ('A' for Active; 'I' for Inactive)
REMARK    1  A    between atoms: C1_1  and  C2_2 
REMARK    2  A    between atoms: C4_4  and  N1_5 
REMARK    3  A    between atoms: C5_6  and  C6_7 
REMARK    4  A    between atoms: C11_12  and  O1_13 
ROOT
ATOM      1  C6   11 d         -19.426 205.287 124.113  0.00  0.00     0.026 A 
ATOM      2  C7   11 d         -19.779 204.705 122.862  0.00  0.00    -0.011 A 
ATOM      3  C8   11 d         -20.411 203.427 122.839  0.00  0.00    -0.025 A 
ATOM      4  C9   11 d         -20.703 202.767 124.044  0.00  0.00     0.015 A 
ATOM      5  C10  11 d         -20.395 203.367 125.269  0.00  0.00     0.038 A 
ATOM      6  C11  11 d         -19.792 204.630 125.311  0.00  0.00     0.078 A 
ATOM      7  C12  11 d         -20.751 202.828 121.611  0.00  0.00     0.012 A 
ATOM      8  C13  11 d         -20.485 203.489 120.405  0.00  0.00     0.001 A 
ATOM      9  C14  11 d         -19.890 204.755 120.415  0.00  0.00     0.001 A 
ATOM     10  C15  11 d         -19.546 205.363 121.630  0.00  0.00     0.013 A 
ENDROOT
BRANCH   1  11
ATOM     11  C5   11 d         -18.694 206.583 124.249  0.00  0.00     0.132 C 
ATOM     12  N1   11 d         -17.428 206.810 123.956  0.00  0.00    -0.260 NA
BRANCH  12  13
ATOM     13  C4   11 d         -16.503 205.757 123.591  0.00  0.00     0.057 A 
ATOM     14  C3   11 d         -16.135 205.652 122.239  0.00  0.00     0.046 A 
ATOM     15  C2   11 d         -15.213 204.672 121.805  0.00  0.00     0.011 A 
ATOM     16  C18  11 d         -14.663 203.793 122.763  0.00  0.00     0.015 A 
ATOM     17  C17  11 d         -15.010 203.905 124.117  0.00  0.00     0.003 A 
ATOM     18  C16  11 d         -15.915 204.890 124.533  0.00  0.00     0.031 A 
BRANCH  15  19
ATOM     19  C1   11 d         -14.848 204.577 120.359  0.00  0.00     0.155 C 
ATOM     20  O2   11 d         -13.901 205.273 119.909  0.00  0.00    -0.293 OA
ATOM     21  C19  11 d         -15.471 203.563 119.441  0.00  0.00     0.096 C 
ENDBRANCH  15  19
ENDBRANCH  12  13
ENDBRANCH   1  11
BRANCH   6  22
ATOM     22  O1   11 d         -19.431 205.159 126.574  0.00  0.00    -0.360 OA
ATOM     23  H5   11 d         -20.325 205.297 127.077  0.00  0.00     0.217 HD
ENDBRANCH   6  22
TORSDOF 4
ENDMDL
MODEL 20
REMARK VINA RESULT:      -6.3      5.594      7.415
REMARK  4 active torsions:
REMARK  status: ('A' for Active; 'I' for Inactive)
REMARK    1  A    between atoms: C1_1  and  C2_2 
REMARK    2  A    between atoms: C4_4  and  N1_5 
REMARK    3  A    between atoms: C5_6  and  C6_7 
REMARK    4  A    between atoms: C11_12  and  O1_13 
ROOT
ATOM      1  C6   11 d          -6.216 209.766 114.403  0.00  0.00     0.026 A 
ATOM      2  C7   11 d          -7.497 209.293 113.997  0.00  0.00    -0.011 A 
ATOM      3  C8   11 d          -7.615 208.551 112.785  0.00  0.00    -0.025 A 
ATOM      4  C9   11 d          -6.471 208.270 112.019  0.00  0.00     0.015 A 
ATOM      5  C10  11 d          -5.213 208.699 112.451  0.00  0.00     0.038 A 
ATOM      6  C11  11 d          -5.075 209.412 113.647  0.00  0.00     0.078 A 
ATOM      7  C12  11 d          -8.876 208.090 112.357  0.00  0.00     0.012 A 
ATOM      8  C13  11 d         -10.018 208.344 113.126  0.00  0.00     0.001 A 
ATOM      9  C14  11 d          -9.911 209.048 114.331  0.00  0.00     0.001 A 
ATOM     10  C15  11 d          -8.663 209.513 114.768  0.00  0.00     0.013 A 
ENDROOT
BRANCH   1  11
ATOM     11  C5   11 d          -5.991 210.616 115.612  0.00  0.00     0.132 C 
ATOM     12  N1   11 d          -5.640 210.204 116.815  0.00  0.00    -0.260 NA
BRANCH  12  13
ATOM     13  C4   11 d          -5.569 208.803 117.176  0.00  0.00     0.057 A 
ATOM     14  C3   11 d          -4.299 208.201 117.200  0.00  0.00     0.046 A 
ATOM     15  C2   11 d          -4.139 206.847 117.574  0.00  0.00     0.011 A 
ATOM     16  C18  11 d          -5.287 206.104 117.926  0.00  0.00     0.015 A 
ATOM     17  C17  11 d          -6.554 206.704 117.924  0.00  0.00     0.003 A 
ATOM     18  C16  11 d          -6.695 208.051 117.565  0.00  0.00     0.031 A 
BRANCH  15  19
ATOM     19  C1   11 d          -2.778 206.228 117.581  0.00  0.00     0.155 C 
ATOM     20  O2   11 d          -1.971 206.512 118.503  0.00  0.00    -0.293 OA
ATOM     21  C19  11 d          -2.382 205.155 116.606  0.00  0.00     0.096 C 
ENDBRANCH  15  19
ENDBRANCH  12  13
ENDBRANCH   1  11
BRANCH   6  22
ATOM     22  O1   11 d          -3.789 209.889 114.000  0.00  0.00    -0.360 OA
ATOM     23  H5   11 d          -3.958 210.653 114.677  0.00  0.00     0.217 HD
ENDBRANCH   6  22
TORSDOF 4
ENDMDL
