MODEL 1
REMARK VINA RESULT:      -9.9      0.000      0.000
REMARK  1 active torsions:
REMARK  status: ('A' for Active; 'I' for Inactive)
REMARK    1  A    between atoms: C14_18  and  S1_19 
ROOT
ATOM      1  C1   11 d         -11.258 208.105 114.737  0.00  0.00     0.075 A 
ATOM      2  C2   11 d         -10.021 208.233 114.161  0.00  0.00     0.101 A 
ATOM      3  C3   11 d          -9.576 208.179 112.738  0.00  0.00     0.212 A 
ATOM      4  C4   11 d          -8.133 208.344 112.718  0.00  0.00     0.043 A 
ATOM      5  C5   11 d          -7.749 208.521 114.033  0.00  0.00     0.047 A 
ATOM      6  C6   11 d          -6.402 208.721 114.366  0.00  0.00     0.030 A 
ATOM      7  C7   11 d          -5.446 208.737 113.330  0.00  0.00     0.002 A 
ATOM      8  C8   11 d          -5.846 208.557 111.988  0.00  0.00     0.001 A 
ATOM      9  C9   11 d          -7.204 208.359 111.671  0.00  0.00     0.018 A 
ATOM     10  N1   11 d          -8.835 208.468 114.871  0.00  0.00    -0.351 N 
ATOM     11  O1   11 d         -10.275 208.084 111.702  0.00  0.00    -0.285 OA
ATOM     12  C10  11 d         -11.564 208.325 116.184  0.00  0.00     0.259 A 
ATOM     13  O2   11 d         -10.728 208.615 117.109  0.00  0.00    -0.267 OA
ATOM     14  N2   11 d         -12.929 208.179 116.446  0.00  0.00    -0.322 N 
ATOM     15  C11  11 d         -13.545 207.847 115.189  0.00  0.00     0.046 A 
ATOM     16  C12  11 d         -12.601 207.764 114.159  0.00  0.00     0.010 A 
ATOM     17  C13  11 d         -13.033 207.358 112.879  0.00  0.00     0.041 A 
ATOM     18  C14  11 d         -14.400 207.098 112.651  0.00  0.00     0.081 A 
ATOM     19  C15  11 d         -15.332 207.231 113.696  0.00  0.00     0.028 A 
ATOM     20  C16  11 d         -14.906 207.599 114.980  0.00  0.00     0.032 A 
ATOM     21  H5   11 d          -8.747 208.585 115.852  0.00  0.00     0.166 HD
ATOM     22  H6   11 d         -13.429 208.285 117.389  0.00  0.00     0.169 HD
ENDROOT
BRANCH  18  23
ATOM     23  S1   11 d         -14.988 206.582 111.022  0.00  0.00     0.137 S 
ATOM     24  O3   11 d         -16.518 206.371 110.991  0.00  0.00    -0.591 OA
ATOM     25  O4   11 d         -14.456 205.201 110.584  0.00  0.00    -0.591 OA
ATOM     26  O5   11 d         -14.659 207.636 109.728  0.00  0.00    -0.591 OA
ENDBRANCH  18  23
TORSDOF 1
ENDMDL
MODEL 2
REMARK VINA RESULT:      -9.8      3.293      6.785
REMARK  1 active torsions:
REMARK  status: ('A' for Active; 'I' for Inactive)
REMARK    1  A    between atoms: C14_18  and  S1_19 
ROOT
ATOM      1  C1   11 d         -12.541 207.183 115.625  0.00  0.00     0.075 A 
ATOM      2  C2   11 d         -13.327 207.029 114.512  0.00  0.00     0.101 A 
ATOM      3  C3   11 d         -13.046 207.231 113.060  0.00  0.00     0.212 A 
ATOM      4  C4   11 d         -14.269 206.950 112.329  0.00  0.00     0.043 A 
ATOM      5  C5   11 d         -15.203 206.572 113.274  0.00  0.00     0.047 A 
ATOM      6  C6   11 d         -16.505 206.219 112.893  0.00  0.00     0.030 A 
ATOM      7  C7   11 d         -16.843 206.258 111.526  0.00  0.00     0.002 A 
ATOM      8  C8   11 d         -15.883 206.645 110.565  0.00  0.00     0.001 A 
ATOM      9  C9   11 d         -14.578 206.995 110.964  0.00  0.00     0.018 A 
ATOM     10  N1   11 d         -14.664 206.605 114.535  0.00  0.00    -0.351 N 
ATOM     11  O1   11 d         -11.960 207.518 112.506  0.00  0.00    -0.285 OA
ATOM     12  C10  11 d         -12.932 206.802 117.016  0.00  0.00     0.259 A 
ATOM     13  O2   11 d         -14.058 206.325 117.394  0.00  0.00    -0.267 OA
ATOM     14  N2   11 d         -11.889 207.026 117.920  0.00  0.00    -0.322 N 
ATOM     15  C11  11 d         -10.802 207.570 117.149  0.00  0.00     0.046 A 
ATOM     16  C12  11 d         -11.146 207.707 115.800  0.00  0.00     0.010 A 
ATOM     17  C13  11 d         -10.218 208.312 114.925  0.00  0.00     0.041 A 
ATOM     18  C14  11 d          -8.957 208.712 115.411  0.00  0.00     0.081 A 
ATOM     19  C15  11 d          -8.623 208.522 116.764  0.00  0.00     0.028 A 
ATOM     20  C16  11 d          -9.553 207.956 117.647  0.00  0.00     0.032 A 
ATOM     21  H5   11 d         -15.190 206.354 115.338  0.00  0.00     0.166 HD
ATOM     22  H6   11 d         -11.887 206.840 118.976  0.00  0.00     0.169 HD
ENDROOT
BRANCH  18  23
ATOM     23  S1   11 d          -7.742 209.484 114.317  0.00  0.00     0.137 S 
ATOM     24  O3   11 d          -8.392 210.088 113.053  0.00  0.00    -0.591 OA
ATOM     25  O4   11 d          -6.728 208.483 113.720  0.00  0.00    -0.591 OA
ATOM     26  O5   11 d          -6.812 210.741 114.984  0.00  0.00    -0.591 OA
ENDBRANCH  18  23
TORSDOF 1
ENDMDL
MODEL 3
REMARK VINA RESULT:      -9.6      3.192      7.366
REMARK  1 active torsions:
REMARK  status: ('A' for Active; 'I' for Inactive)
REMARK    1  A    between atoms: C14_18  and  S1_19 
ROOT
ATOM      1  C1   11 d         -11.076 207.925 113.199  0.00  0.00     0.075 A 
ATOM      2  C2   11 d         -12.362 207.502 112.979  0.00  0.00     0.101 A 
ATOM      3  C3   11 d         -13.487 207.209 113.914  0.00  0.00     0.212 A 
ATOM      4  C4   11 d         -14.616 206.758 113.121  0.00  0.00     0.043 A 
ATOM      5  C5   11 d         -14.207 206.813 111.803  0.00  0.00     0.047 A 
ATOM      6  C6   11 d         -15.077 206.449 110.767  0.00  0.00     0.030 A 
ATOM      7  C7   11 d         -16.379 206.023 111.096  0.00  0.00     0.002 A 
ATOM      8  C8   11 d         -16.792 205.970 112.445  0.00  0.00     0.001 A 
ATOM      9  C9   11 d         -15.906 206.342 113.475  0.00  0.00     0.018 A 
ATOM     10  N1   11 d         -12.910 207.252 111.712  0.00  0.00    -0.351 N 
ATOM     11  O1   11 d         -13.535 207.371 115.156  0.00  0.00    -0.285 OA
ATOM     12  C10  11 d         -10.101 208.311 112.135  0.00  0.00     0.259 A 
ATOM     13  O2   11 d         -10.287 208.266 110.869  0.00  0.00    -0.267 OA
ATOM     14  N2   11 d          -8.895 208.758 112.684  0.00  0.00    -0.322 N 
ATOM     15  C11  11 d          -9.045 208.660 114.112  0.00  0.00     0.046 A 
ATOM     16  C12  11 d         -10.300 208.149 114.463  0.00  0.00     0.010 A 
ATOM     17  C13  11 d         -10.571 207.907 115.827  0.00  0.00     0.041 A 
ATOM     18  C14  11 d          -9.605 208.230 116.801  0.00  0.00     0.081 A 
ATOM     19  C15  11 d          -8.369 208.782 116.420  0.00  0.00     0.028 A 
ATOM     20  C16  11 d          -8.077 208.992 115.065  0.00  0.00     0.032 A 
ATOM     21  H5   11 d         -12.453 207.362 110.839  0.00  0.00     0.166 HD
ATOM     22  H6   11 d          -8.024 209.101 112.160  0.00  0.00     0.169 HD
ENDROOT
BRANCH  18  23
ATOM     23  S1   11 d          -9.922 207.939 118.557  0.00  0.00     0.137 S 
ATOM     24  O3   11 d          -9.302 206.614 119.053  0.00  0.00    -0.591 OA
ATOM     25  O4   11 d         -11.418 207.746 118.888  0.00  0.00    -0.591 OA
ATOM     26  O5   11 d          -9.359 209.126 119.636  0.00  0.00    -0.591 OA
ENDBRANCH  18  23
TORSDOF 1
ENDMDL
MODEL 4
REMARK VINA RESULT:      -9.2      3.512      6.910
REMARK  1 active torsions:
REMARK  status: ('A' for Active; 'I' for Inactive)
REMARK    1  A    between atoms: C14_18  and  S1_19 
ROOT
ATOM      1  C1   11 d         -11.829 207.528 114.630  0.00  0.00     0.075 A 
ATOM      2  C2   11 d         -12.857 207.341 113.743  0.00  0.00     0.101 A 
ATOM      3  C3   11 d         -14.289 206.974 113.943  0.00  0.00     0.212 A 
ATOM      4  C4   11 d         -14.910 206.880 112.634  0.00  0.00     0.043 A 
ATOM      5  C5   11 d         -13.927 207.203 111.719  0.00  0.00     0.047 A 
ATOM      6  C6   11 d         -14.204 207.219 110.345  0.00  0.00     0.030 A 
ATOM      7  C7   11 d         -15.507 206.896 109.914  0.00  0.00     0.002 A 
ATOM      8  C8   11 d         -16.507 206.568 110.856  0.00  0.00     0.001 A 
ATOM      9  C9   11 d         -16.213 206.559 112.233  0.00  0.00     0.018 A 
ATOM     10  N1   11 d         -12.742 207.480 112.352  0.00  0.00    -0.351 N 
ATOM     11  O1   11 d         -14.918 206.831 115.018  0.00  0.00    -0.285 OA
ATOM     12  C10  11 d         -10.467 208.034 114.279  0.00  0.00     0.259 A 
ATOM     13  O2   11 d         -10.034 208.325 113.110  0.00  0.00    -0.267 OA
ATOM     14  N2   11 d          -9.664 208.174 115.415  0.00  0.00    -0.322 N 
ATOM     15  C11  11 d         -10.470 207.749 116.529  0.00  0.00     0.046 A 
ATOM     16  C12  11 d         -11.741 207.334 116.116  0.00  0.00     0.010 A 
ATOM     17  C13  11 d         -12.623 206.802 117.080  0.00  0.00     0.041 A 
ATOM     18  C14  11 d         -12.232 206.749 118.433  0.00  0.00     0.081 A 
ATOM     19  C15  11 d         -10.964 207.214 118.825  0.00  0.00     0.028 A 
ATOM     20  C16  11 d         -10.067 207.710 117.867  0.00  0.00     0.032 A 
ATOM     21  H5   11 d         -11.927 207.742 111.850  0.00  0.00     0.166 HD
ATOM     22  H6   11 d          -8.650 208.520 115.461  0.00  0.00     0.169 HD
ENDROOT
BRANCH  18  23
ATOM     23  S1   11 d         -13.340 206.080 119.695  0.00  0.00     0.137 S 
ATOM     24  O3   11 d         -14.291 207.152 120.269  0.00  0.00    -0.591 OA
ATOM     25  O4   11 d         -12.604 205.583 120.959  0.00  0.00    -0.591 OA
ATOM     26  O5   11 d         -14.350 204.799 119.215  0.00  0.00    -0.591 OA
ENDBRANCH  18  23
TORSDOF 1
ENDMDL
MODEL 5
REMARK VINA RESULT:      -8.9      4.044      7.135
REMARK  1 active torsions:
REMARK  status: ('A' for Active; 'I' for Inactive)
REMARK    1  A    between atoms: C14_18  and  S1_19 
ROOT
ATOM      1  C1   11 d         -12.776 205.814 116.749  0.00  0.00     0.075 A 
ATOM      2  C2   11 d         -13.580 205.162 117.648  0.00  0.00     0.101 A 
ATOM      3  C3   11 d         -14.768 204.277 117.462  0.00  0.00     0.212 A 
ATOM      4  C4   11 d         -15.247 203.895 118.778  0.00  0.00     0.043 A 
ATOM      5  C5   11 d         -14.385 204.481 119.685  0.00  0.00     0.047 A 
ATOM      6  C6   11 d         -14.563 204.298 121.063  0.00  0.00     0.030 A 
ATOM      7  C7   11 d         -15.641 203.505 121.507  0.00  0.00     0.002 A 
ATOM      8  C8   11 d         -16.517 202.909 120.573  0.00  0.00     0.001 A 
ATOM      9  C9   11 d         -16.323 203.101 119.191  0.00  0.00     0.018 A 
ATOM     10  N1   11 d         -13.415 205.205 119.040  0.00  0.00    -0.351 N 
ATOM     11  O1   11 d         -15.264 203.848 116.394  0.00  0.00    -0.285 OA
ATOM     12  C10  11 d         -11.527 206.560 117.092  0.00  0.00     0.259 A 
ATOM     13  O2   11 d         -11.041 206.747 118.261  0.00  0.00    -0.267 OA
ATOM     14  N2   11 d         -10.900 207.060 115.947  0.00  0.00    -0.322 N 
ATOM     15  C11  11 d         -11.726 206.669 114.835  0.00  0.00     0.046 A 
ATOM     16  C12  11 d         -12.855 205.959 115.258  0.00  0.00     0.010 A 
ATOM     17  C13  11 d         -13.815 205.582 114.294  0.00  0.00     0.041 A 
ATOM     18  C14  11 d         -13.593 205.878 112.934  0.00  0.00     0.081 A 
ATOM     19  C15  11 d         -12.427 206.555 112.534  0.00  0.00     0.028 A 
ATOM     20  C16  11 d         -11.487 206.965 113.489  0.00  0.00     0.032 A 
ATOM     21  H5   11 d         -12.703 205.687 119.535  0.00  0.00     0.166 HD
ATOM     22  H6   11 d          -9.990 207.626 115.893  0.00  0.00     0.169 HD
ENDROOT
BRANCH  18  23
ATOM     23  S1   11 d         -14.798 205.403 111.672  0.00  0.00     0.137 S 
ATOM     24  O3   11 d         -14.604 203.948 111.194  0.00  0.00    -0.591 OA
ATOM     25  O4   11 d         -14.660 206.203 110.358  0.00  0.00    -0.591 OA
ATOM     26  O5   11 d         -16.438 205.513 112.110  0.00  0.00    -0.591 OA
ENDBRANCH  18  23
TORSDOF 1
ENDMDL
MODEL 6
REMARK VINA RESULT:      -8.9      4.050      6.374
REMARK  1 active torsions:
REMARK  status: ('A' for Active; 'I' for Inactive)
REMARK    1  A    between atoms: C14_18  and  S1_19 
ROOT
ATOM      1  C1   11 d         -13.441 206.157 115.069  0.00  0.00     0.075 A 
ATOM      2  C2   11 d         -13.032 206.477 113.800  0.00  0.00     0.101 A 
ATOM      3  C3   11 d         -11.710 206.914 113.262  0.00  0.00     0.212 A 
ATOM      4  C4   11 d         -11.868 207.150 111.838  0.00  0.00     0.043 A 
ATOM      5  C5   11 d         -13.180 206.841 111.540  0.00  0.00     0.047 A 
ATOM      6  C6   11 d         -13.664 206.952 110.230  0.00  0.00     0.030 A 
ATOM      7  C7   11 d         -12.783 207.388 109.219  0.00  0.00     0.002 A 
ATOM      8  C8   11 d         -11.441 207.702 109.531  0.00  0.00     0.001 A 
ATOM      9  C9   11 d         -10.971 207.583 110.853  0.00  0.00     0.018 A 
ATOM     10  N1   11 d         -13.856 206.442 112.666  0.00  0.00    -0.351 N 
ATOM     11  O1   11 d         -10.614 207.010 113.861  0.00  0.00    -0.285 OA
ATOM     12  C10  11 d         -14.779 205.596 115.428  0.00  0.00     0.259 A 
ATOM     13  O2   11 d         -15.757 205.373 114.632  0.00  0.00    -0.267 OA
ATOM     14  N2   11 d         -14.867 205.317 116.795  0.00  0.00    -0.322 N 
ATOM     15  C11  11 d         -13.602 205.701 117.363  0.00  0.00     0.046 A 
ATOM     16  C12  11 d         -12.740 206.226 116.394  0.00  0.00     0.010 A 
ATOM     17  C13  11 d         -11.490 206.733 116.806  0.00  0.00     0.041 A 
ATOM     18  C14  11 d         -11.116 206.653 118.163  0.00  0.00     0.081 A 
ATOM     19  C15  11 d         -11.986 206.081 119.108  0.00  0.00     0.028 A 
ATOM     20  C16  11 d         -13.245 205.608 118.712  0.00  0.00     0.032 A 
ATOM     21  H5   11 d         -14.810 206.171 112.638  0.00  0.00     0.166 HD
ATOM     22  H6   11 d         -15.703 204.906 117.327  0.00  0.00     0.169 HD
ENDROOT
BRANCH  18  23
ATOM     23  S1   11 d          -9.518 207.287 118.725  0.00  0.00     0.137 S 
ATOM     24  O3   11 d          -9.661 208.580 119.557  0.00  0.00    -0.591 OA
ATOM     25  O4   11 d          -8.594 207.737 117.573  0.00  0.00    -0.591 OA
ATOM     26  O5   11 d          -8.583 206.241 119.686  0.00  0.00    -0.591 OA
ENDBRANCH  18  23
TORSDOF 1
ENDMDL
MODEL 7
REMARK VINA RESULT:      -8.9      4.758      6.829
REMARK  1 active torsions:
REMARK  status: ('A' for Active; 'I' for Inactive)
REMARK    1  A    between atoms: C14_18  and  S1_19 
ROOT
ATOM      1  C1   11 d         -13.155 206.152 116.589  0.00  0.00     0.075 A 
ATOM      2  C2   11 d         -13.457 206.118 115.252  0.00  0.00     0.101 A 
ATOM      3  C3   11 d         -14.581 205.485 114.502  0.00  0.00     0.212 A 
ATOM      4  C4   11 d         -14.373 205.746 113.089  0.00  0.00     0.043 A 
ATOM      5  C5   11 d         -13.226 206.511 113.004  0.00  0.00     0.047 A 
ATOM      6  C6   11 d         -12.747 206.949 111.762  0.00  0.00     0.030 A 
ATOM      7  C7   11 d         -13.458 206.591 110.599  0.00  0.00     0.002 A 
ATOM      8  C8   11 d         -14.631 205.810 110.693  0.00  0.00     0.001 A 
ATOM      9  C9   11 d         -15.101 205.379 111.950  0.00  0.00     0.018 A 
ATOM     10  N1   11 d         -12.698 206.739 114.249  0.00  0.00    -0.351 N 
ATOM     11  O1   11 d         -15.586 204.889 114.954  0.00  0.00    -0.285 OA
ATOM     12  C10  11 d         -12.055 206.955 117.205  0.00  0.00     0.259 A 
ATOM     13  O2   11 d         -11.205 207.690 116.592  0.00  0.00    -0.267 OA
ATOM     14  N2   11 d         -12.044 206.824 118.597  0.00  0.00    -0.322 N 
ATOM     15  C11  11 d         -13.120 205.925 118.923  0.00  0.00     0.046 A 
ATOM     16  C12  11 d         -13.784 205.481 117.774  0.00  0.00     0.010 A 
ATOM     17  C13  11 d         -14.809 204.521 117.917  0.00  0.00     0.041 A 
ATOM     18  C14  11 d         -15.174 204.074 119.203  0.00  0.00     0.081 A 
ATOM     19  C15  11 d         -14.517 204.571 120.342  0.00  0.00     0.028 A 
ATOM     20  C16  11 d         -13.473 205.497 120.206  0.00  0.00     0.032 A 
ATOM     21  H5   11 d         -11.876 207.279 114.380  0.00  0.00     0.166 HD
ATOM     22  H6   11 d         -11.372 207.289 119.292  0.00  0.00     0.169 HD
ENDROOT
BRANCH  18  23
ATOM     23  S1   11 d         -16.487 202.850 119.423  0.00  0.00     0.137 S 
ATOM     24  O3   11 d         -16.509 202.264 120.852  0.00  0.00    -0.591 OA
ATOM     25  O4   11 d         -16.304 201.588 118.552  0.00  0.00    -0.591 OA
ATOM     26  O5   11 d         -18.076 203.383 119.136  0.00  0.00    -0.591 OA
ENDBRANCH  18  23
TORSDOF 1
ENDMDL
MODEL 8
REMARK VINA RESULT:      -8.8      3.516      8.054
REMARK  1 active torsions:
REMARK  status: ('A' for Active; 'I' for Inactive)
REMARK    1  A    between atoms: C14_18  and  S1_19 
ROOT
ATOM      1  C1   11 d          -9.152 208.591 113.422  0.00  0.00     0.075 A 
ATOM      2  C2   11 d         -10.418 208.329 113.879  0.00  0.00     0.101 A 
ATOM      3  C3   11 d         -11.015 208.387 115.245  0.00  0.00     0.212 A 
ATOM      4  C4   11 d         -12.401 207.967 115.142  0.00  0.00     0.043 A 
ATOM      5  C5   11 d         -12.626 207.712 113.803  0.00  0.00     0.047 A 
ATOM      6  C6   11 d         -13.886 207.292 113.356  0.00  0.00     0.030 A 
ATOM      7  C7   11 d         -14.920 207.133 114.300  0.00  0.00     0.002 A 
ATOM      8  C8   11 d         -14.683 207.397 115.667  0.00  0.00     0.001 A 
ATOM      9  C9   11 d         -13.411 207.821 116.100  0.00  0.00     0.018 A 
ATOM     10  N1   11 d         -11.489 207.929 113.066  0.00  0.00    -0.351 N 
ATOM     11  O1   11 d         -10.491 208.785 116.312  0.00  0.00    -0.285 OA
ATOM     12  C10  11 d          -8.742 208.621 111.985  0.00  0.00     0.259 A 
ATOM     13  O2   11 d          -9.480 208.366 110.971  0.00  0.00    -0.267 OA
ATOM     14  N2   11 d          -7.398 208.979 111.845  0.00  0.00    -0.322 N 
ATOM     15  C11  11 d          -6.894 209.176 113.178  0.00  0.00     0.046 A 
ATOM     16  C12  11 d          -7.880 208.932 114.141  0.00  0.00     0.010 A 
ATOM     17  C13  11 d          -7.520 208.993 115.504  0.00  0.00     0.041 A 
ATOM     18  C14  11 d          -6.205 209.347 115.866  0.00  0.00     0.081 A 
ATOM     19  C15  11 d          -5.246 209.628 114.876  0.00  0.00     0.028 A 
ATOM     20  C16  11 d          -5.586 209.534 113.518  0.00  0.00     0.032 A 
ATOM     21  H5   11 d         -11.469 207.803 112.082  0.00  0.00     0.166 HD
ATOM     22  H6   11 d          -6.841 209.085 110.934  0.00  0.00     0.169 HD
ENDROOT
BRANCH  18  23
ATOM     23  S1   11 d          -5.712 209.442 117.603  0.00  0.00     0.137 S 
ATOM     24  O3   11 d          -4.385 208.701 117.877  0.00  0.00    -0.591 OA
ATOM     25  O4   11 d          -6.692 208.729 118.560  0.00  0.00    -0.591 OA
ATOM     26  O5   11 d          -5.491 211.001 118.244  0.00  0.00    -0.591 OA
ENDBRANCH  18  23
TORSDOF 1
ENDMDL
MODEL 9
REMARK VINA RESULT:      -8.1      2.398      2.923
REMARK  1 active torsions:
REMARK  status: ('A' for Active; 'I' for Inactive)
REMARK    1  A    between atoms: C14_18  and  S1_19 
ROOT
ATOM      1  C1   11 d         -10.809 206.894 117.099  0.00  0.00     0.075 A 
ATOM      2  C2   11 d          -9.763 207.666 116.663  0.00  0.00     0.101 A 
ATOM      3  C3   11 d          -9.567 208.462 115.416  0.00  0.00     0.212 A 
ATOM      4  C4   11 d          -8.242 209.054 115.472  0.00  0.00     0.043 A 
ATOM      5  C5   11 d          -7.700 208.668 116.682  0.00  0.00     0.047 A 
ATOM      6  C6   11 d          -6.416 209.085 117.058  0.00  0.00     0.030 A 
ATOM      7  C7   11 d          -5.686 209.906 116.175  0.00  0.00     0.002 A 
ATOM      8  C8   11 d          -6.247 210.298 114.939  0.00  0.00     0.001 A 
ATOM      9  C9   11 d          -7.540 209.871 114.577  0.00  0.00     0.018 A 
ATOM     10  N1   11 d          -8.576 207.875 117.380  0.00  0.00    -0.351 N 
ATOM     11  O1   11 d         -10.382 208.679 114.489  0.00  0.00    -0.285 OA
ATOM     12  C10  11 d         -10.911 206.264 118.450  0.00  0.00     0.259 A 
ATOM     13  O2   11 d         -10.036 206.303 119.384  0.00  0.00    -0.267 OA
ATOM     14  N2   11 d         -12.127 205.592 118.610  0.00  0.00    -0.322 N 
ATOM     15  C11  11 d         -12.838 205.751 117.370  0.00  0.00     0.046 A 
ATOM     16  C12  11 d         -12.093 206.485 116.440  0.00  0.00     0.010 A 
ATOM     17  C13  11 d         -12.615 206.652 115.140  0.00  0.00     0.041 A 
ATOM     18  C14  11 d         -13.885 206.129 114.822  0.00  0.00     0.081 A 
ATOM     19  C15  11 d         -14.629 205.432 115.791  0.00  0.00     0.028 A 
ATOM     20  C16  11 d         -14.102 205.230 117.075  0.00  0.00     0.032 A 
ATOM     21  H5   11 d          -8.357 207.513 118.277  0.00  0.00     0.166 HD
ATOM     22  H6   11 d         -12.470 205.057 119.475  0.00  0.00     0.169 HD
ENDROOT
BRANCH  18  23
ATOM     23  S1   11 d         -14.586 206.330 113.168  0.00  0.00     0.137 S 
ATOM     24  O3   11 d         -14.568 205.015 112.359  0.00  0.00    -0.591 OA
ATOM     25  O4   11 d         -13.772 207.284 112.267  0.00  0.00    -0.591 OA
ATOM     26  O5   11 d         -16.194 206.880 113.088  0.00  0.00    -0.591 OA
ENDBRANCH  18  23
TORSDOF 1
ENDMDL
MODEL 10
REMARK VINA RESULT:      -8.0      3.829      7.648
REMARK  1 active torsions:
REMARK  status: ('A' for Active; 'I' for Inactive)
REMARK    1  A    between atoms: C14_18  and  S1_19 
ROOT
ATOM      1  C1   11 d          -8.424 208.610 113.782  0.00  0.00     0.075 A 
ATOM      2  C2   11 d          -9.663 208.117 113.465  0.00  0.00     0.101 A 
ATOM      3  C3   11 d         -10.823 207.721 114.316  0.00  0.00     0.212 A 
ATOM      4  C4   11 d         -11.869 207.229 113.438  0.00  0.00     0.043 A 
ATOM      5  C5   11 d         -11.382 207.355 112.152  0.00  0.00     0.047 A 
ATOM      6  C6   11 d         -12.160 206.974 111.050  0.00  0.00     0.030 A 
ATOM      7  C7   11 d         -13.450 206.457 111.281  0.00  0.00     0.002 A 
ATOM      8  C8   11 d         -13.943 206.332 112.599  0.00  0.00     0.001 A 
ATOM      9  C9   11 d         -13.149 206.721 113.695  0.00  0.00     0.018 A 
ATOM     10  N1   11 d         -10.113 207.877 112.159  0.00  0.00    -0.351 N 
ATOM     11  O1   11 d         -10.959 207.836 115.557  0.00  0.00    -0.285 OA
ATOM     12  C10  11 d          -7.410 209.094 112.796  0.00  0.00     0.259 A 
ATOM     13  O2   11 d          -7.513 209.081 111.520  0.00  0.00    -0.267 OA
ATOM     14  N2   11 d          -6.272 209.594 113.436  0.00  0.00    -0.322 N 
ATOM     15  C11  11 d          -6.505 209.438 114.847  0.00  0.00     0.046 A 
ATOM     16  C12  11 d          -7.744 208.838 115.100  0.00  0.00     0.010 A 
ATOM     17  C13  11 d          -8.084 208.532 116.435  0.00  0.00     0.041 A 
ATOM     18  C14  11 d          -7.204 208.880 117.479  0.00  0.00     0.081 A 
ATOM     19  C15  11 d          -5.984 209.521 117.197  0.00  0.00     0.028 A 
ATOM     20  C16  11 d          -5.622 209.795 115.871  0.00  0.00     0.032 A 
ATOM     21  H5   11 d          -9.610 208.046 111.321  0.00  0.00     0.166 HD
ATOM     22  H6   11 d          -5.394 210.009 112.980  0.00  0.00     0.169 HD
ENDROOT
BRANCH  18  23
ATOM     23  S1   11 d          -7.612 208.509 119.201  0.00  0.00     0.137 S 
ATOM     24  O3   11 d          -6.755 209.323 120.195  0.00  0.00    -0.591 OA
ATOM     25  O4   11 d          -7.295 207.053 119.608  0.00  0.00    -0.591 OA
ATOM     26  O5   11 d          -9.222 208.780 119.674  0.00  0.00    -0.591 OA
ENDBRANCH  18  23
TORSDOF 1
ENDMDL
