REMARK  6 active torsions:
REMARK  status: ('A' for Active; 'I' for Inactive)
REMARK    1  A    between atoms: C3_3  and  C4_4 
REMARK    2  A    between atoms: C3_3  and  O1_17 
REMARK    3  A    between atoms: C11_11  and  S1_26 
REMARK    4  A    between atoms: N1_14  and  S1_26 
REMARK    5  A    between atoms: C14_16  and  O1_17 
REMARK    6  A    between atoms: N6_23  and  C17_24 
ROOT
ATOM      1  C1  <1> d           7.100  44.110  50.728  0.00  0.00     0.225 A 
ATOM      2  C2  <1> d           9.954  46.701  52.938  0.00  0.00     0.199 A 
ATOM      3  N2  <1> d           6.117  44.779  51.550  0.00  0.00    -0.177 NA
ATOM      4  C14 <1> d           6.550  45.704  52.378  0.00  0.00     0.248 A 
ATOM      5  C15 <1> d           7.938  45.994  52.545  0.00  0.00     0.169 A 
ATOM      6  N3  <1> d           8.715  46.935  53.278  0.00  0.00    -0.229 NA
ATOM      7  N4  <1> d          10.055  45.737  52.027  0.00  0.00    -0.329 N 
ATOM      8  C16 <1> d           8.826  45.354  51.795  0.00  0.00     0.167 A 
ATOM      9  N5  <1> d           8.331  44.365  50.930  0.00  0.00    -0.195 NA
ATOM     10  N6  <1> d           6.725  43.154  49.920  0.00  0.00    -0.283 N 
ATOM     11  H20 <1> d          10.891  45.381  51.609  0.00  0.00     0.168 HD
ATOM     12  H21 <1> d           7.359  42.864  49.203  0.00  0.00     0.155 HD
ENDROOT
BRANCH  10  13
ATOM     13  C17 <1> d           5.502  42.525  50.004  0.00  0.00     0.034 A 
ATOM     14  C13 <1> d           4.670  42.376  51.116  0.00  0.00     0.025 A 
ATOM     15  C12 <1> d           3.467  41.712  51.115  0.00  0.00     0.030 A 
ATOM     16  C11 <1> d           3.033  41.065  49.899  0.00  0.00     0.105 A 
ATOM     17  C10 <1> d           3.856  41.150  48.804  0.00  0.00     0.030 A 
ATOM     18  C18 <1> d           5.036  41.865  48.846  0.00  0.00     0.025 A 
BRANCH  16  19
ATOM     19  S1  <1> d           1.574  40.115  49.840  0.00  0.00     0.056 S 
ATOM     20  O2  <1> d           1.882  38.815  50.417  0.00  0.00    -0.153 OA
ATOM     21  O3  <1> d           0.968  40.095  48.513  0.00  0.00    -0.153 OA
BRANCH  19  22
ATOM     22  N1  <1> d           0.500  40.798  50.783  0.00  0.00    -0.203 NA
ATOM     23  H18 <1> d          -0.347  40.267  50.764  0.00  0.00     0.144 HD
ATOM     24  H19 <1> d           0.318  41.728  50.463  0.00  0.00     0.144 HD
ENDBRANCH  19  22
ENDBRANCH  16  19
ENDBRANCH  10  13
BRANCH   4  25
ATOM     25  O1  <1> d           5.733  46.451  53.109  0.00  0.00    -0.474 OA
BRANCH  25  26
ATOM     26  C3  <1> d           4.370  45.985  52.751  0.00  0.00     0.234 C 
BRANCH  26  27
ATOM     27  C4  <1> d           3.425  46.312  53.944  0.00  0.00     0.027 C 
ATOM     28  C5  <1> d           3.783  45.641  55.300  0.00  0.00     0.007 C 
ATOM     29  C6  <1> d           2.904  46.005  56.491  0.00  0.00     0.000 C 
ATOM     30  C7  <1> d           1.355  45.720  56.166  0.00  0.00     0.000 C 
ATOM     31  C8  <1> d           1.026  46.439  54.862  0.00  0.00     0.000 C 
ATOM     32  C9  <1> d           1.932  46.096  53.625  0.00  0.00     0.007 C 
ENDBRANCH  26  27
ENDBRANCH  25  26
ENDBRANCH   4  25
TORSDOF 6
