REMARK  3 active torsions:
REMARK  status: ('A' for Active; 'I' for Inactive)
REMARK    1  A    between atoms: C2_3  and  N2_9 
REMARK    2  A    between atoms: N2_9  and  C8_10 
REMARK    3  A    between atoms: C8_10  and  C9_11 
ROOT
ATOM      1  N1   11 d          -5.482  -1.358   2.113  0.00  0.00    -0.069 N 
ATOM      2  C1   11 d          -6.819  -0.722   1.785  0.00  0.00     0.268 C 
ATOM      3  C2   11 d          -7.899  -1.797   1.389  0.00  0.00     0.215 C 
ATOM      4  C3   11 d          -7.263  -3.208   1.628  0.00  0.00     0.021 C 
ATOM      5  C4   11 d          -6.725  -3.326   3.078  0.00  0.00     0.034 C 
ATOM      6  C5   11 d          -5.648  -2.235   3.330  0.00  0.00     0.235 C 
ATOM      7  C6   11 d          -6.045  -3.351   0.677  0.00  0.00     0.034 C 
ATOM      8  C7   11 d          -5.029  -2.208   0.950  0.00  0.00     0.235 C 
ATOM      9  H1   11 d          -4.744  -0.598   2.311  0.00  0.00     0.280 HD
ENDROOT
BRANCH   3  10
ATOM     10  N2   11 d          -9.245  -1.574   2.045  0.00  0.00    -0.067 N 
ATOM     11  H14  11 d          -9.177  -1.741   3.103  0.00  0.00     0.277 HD
ATOM     12  H15  11 d          -9.526  -0.544   1.920  0.00  0.00     0.277 HD
BRANCH  10  13
ATOM     13  C8   11 d         -10.358  -2.415   1.489  0.00  0.00     0.264 C 
BRANCH  13  14
ATOM     14  C9   11 d         -11.716  -2.002   2.078  0.00  0.00     0.147 C 
ATOM     15  O1   11 d         -11.569  -1.972   3.516  0.00  0.00    -0.384 OA
ATOM     16  C10  11 d         -12.574  -2.863   4.060  0.00  0.00     0.168 C 
ATOM     17  C11  11 d         -12.947  -3.836   2.960  0.00  0.00     0.029 C 
ATOM     18  C12  11 d         -12.861  -2.957   1.735  0.00  0.00     0.036 C 
ENDBRANCH  13  14
ENDBRANCH  10  13
ENDBRANCH   3  10
TORSDOF 3
