MODEL 1
REMARK VINA RESULT:      -6.7      0.000      0.000
REMARK  2 active torsions:
REMARK  status: ('A' for Active; 'I' for Inactive)
REMARK    1  A    between atoms: C1_1  and  C2_2 
REMARK       I    between atoms: C1_1  and  N1_10 
REMARK    2  A    between atoms: C3_3  and  O1_4 
ROOT
ATOM      1  C1   11 d         -14.113 207.752 115.049  0.00  0.00     0.256 C 
ATOM      2  N1   11 d         -13.604 207.014 116.155  0.00  0.00    -0.345 N 
ATOM      3  C9   11 d         -12.479 207.577 116.961  0.00  0.00     0.153 C 
ATOM      4  C10  11 d         -11.512 206.476 117.402  0.00  0.00     0.252 C 
ATOM      5  N2   11 d         -12.241 205.296 117.956  0.00  0.00    -0.072 N 
ATOM      6  C11  11 d         -13.166 204.693 116.951  0.00  0.00     0.252 C 
ATOM      7  C12  11 d         -14.228 205.699 116.496  0.00  0.00     0.153 C 
ATOM      8  O2   11 d         -14.842 208.769 115.311  0.00  0.00    -0.267 OA
ATOM      9  H12  11 d         -11.527 204.555 118.261  0.00  0.00     0.277 HD
ATOM     10  H13  11 d         -12.793 205.587 118.830  0.00  0.00     0.277 HD
ENDROOT
BRANCH   1  11
ATOM     11  C2   11 d         -13.804 207.364 113.638  0.00  0.00     0.065 A 
ATOM     12  C3   11 d         -14.816 206.951 112.733  0.00  0.00     0.084 A 
ATOM     13  C5   11 d         -14.469 206.521 111.440  0.00  0.00     0.038 A 
ATOM     14  C6   11 d         -13.137 206.558 111.011  0.00  0.00     0.003 A 
ATOM     15  C7   11 d         -12.135 206.999 111.883  0.00  0.00     0.001 A 
ATOM     16  C8   11 d         -12.464 207.393 113.188  0.00  0.00     0.020 A 
BRANCH  12  17
ATOM     17  O1   11 d         -16.164 206.792 113.153  0.00  0.00    -0.355 OA
ATOM     18  C4   11 d         -16.878 205.942 112.218  0.00  0.00     0.210 C 
ENDBRANCH  12  17
ENDBRANCH   1  11
TORSDOF 2
ENDMDL
MODEL 2
REMARK VINA RESULT:      -6.5      2.536      3.600
REMARK  2 active torsions:
REMARK  status: ('A' for Active; 'I' for Inactive)
REMARK    1  A    between atoms: C1_1  and  C2_2 
REMARK       I    between atoms: C1_1  and  N1_10 
REMARK    2  A    between atoms: C3_3  and  O1_4 
ROOT
ATOM      1  C1   11 d         -11.799 206.559 113.907  0.00  0.00     0.256 C 
ATOM      2  N1   11 d         -12.947 207.061 114.581  0.00  0.00    -0.345 N 
ATOM      3  C9   11 d         -14.216 206.274 114.562  0.00  0.00     0.153 C 
ATOM      4  C10  11 d         -15.435 207.193 114.457  0.00  0.00     0.252 C 
ATOM      5  N2   11 d         -15.342 208.337 115.413  0.00  0.00    -0.072 N 
ATOM      6  C11  11 d         -14.133 209.176 115.158  0.00  0.00     0.252 C 
ATOM      7  C12  11 d         -12.846 208.361 115.312  0.00  0.00     0.153 C 
ATOM      8  O2   11 d         -11.176 205.589 114.460  0.00  0.00    -0.267 OA
ATOM      9  H12  11 d         -16.219 208.949 115.314  0.00  0.00     0.277 HD
ATOM     10  H13  11 d         -15.323 207.968 116.421  0.00  0.00     0.277 HD
ENDROOT
BRANCH   1  11
ATOM     11  C2   11 d         -11.340 207.131 112.603  0.00  0.00     0.065 A 
ATOM     12  C3   11 d         -11.985 206.819 111.378  0.00  0.00     0.084 A 
ATOM     13  C5   11 d         -11.471 207.319 110.168  0.00  0.00     0.038 A 
ATOM     14  C6   11 d         -10.365 208.177 110.164  0.00  0.00     0.003 A 
ATOM     15  C7   11 d          -9.745 208.521 111.370  0.00  0.00     0.001 A 
ATOM     16  C8   11 d         -10.224 207.998 112.580  0.00  0.00     0.020 A 
BRANCH  12  17
ATOM     17  O1   11 d         -13.040 205.869 111.316  0.00  0.00    -0.355 OA
ATOM     18  C4   11 d         -14.208 206.464 110.693  0.00  0.00     0.210 C 
ENDBRANCH  12  17
ENDBRANCH   1  11
TORSDOF 2
ENDMDL
MODEL 3
REMARK VINA RESULT:      -6.5      1.196      2.321
REMARK  2 active torsions:
REMARK  status: ('A' for Active; 'I' for Inactive)
REMARK    1  A    between atoms: C1_1  and  C2_2 
REMARK       I    between atoms: C1_1  and  N1_10 
REMARK    2  A    between atoms: C3_3  and  O1_4 
ROOT
ATOM      1  C1   11 d         -14.545 207.507 114.940  0.00  0.00     0.256 C 
ATOM      2  N1   11 d         -13.815 206.876 115.987  0.00  0.00    -0.345 N 
ATOM      3  C9   11 d         -12.455 207.380 116.344  0.00  0.00     0.153 C 
ATOM      4  C10  11 d         -11.518 206.226 116.707  0.00  0.00     0.252 C 
ATOM      5  N2   11 d         -12.170 205.264 117.644  0.00  0.00    -0.072 N 
ATOM      6  C11  11 d         -13.402 204.662 117.054  0.00  0.00     0.252 C 
ATOM      7  C12  11 d         -14.443 205.735 116.720  0.00  0.00     0.153 C 
ATOM      8  O2   11 d         -15.061 208.649 115.194  0.00  0.00    -0.267 OA
ATOM      9  H12  11 d         -11.476 204.479 117.880  0.00  0.00     0.277 HD
ATOM     10  H13  11 d         -12.414 205.761 118.564  0.00  0.00     0.277 HD
ENDROOT
BRANCH   1  11
ATOM     11  C2   11 d         -14.697 206.870 113.595  0.00  0.00     0.065 A 
ATOM     12  C3   11 d         -13.650 206.877 112.638  0.00  0.00     0.084 A 
ATOM     13  C5   11 d         -13.865 206.334 111.358  0.00  0.00     0.038 A 
ATOM     14  C6   11 d         -15.085 205.726 111.038  0.00  0.00     0.003 A 
ATOM     15  C7   11 d         -16.112 205.680 111.988  0.00  0.00     0.001 A 
ATOM     16  C8   11 d         -15.922 206.252 113.255  0.00  0.00     0.020 A 
BRANCH  12  17
ATOM     17  O1   11 d         -12.435 207.576 112.873  0.00  0.00    -0.355 OA
ATOM     18  C4   11 d         -11.321 206.646 112.885  0.00  0.00     0.210 C 
ENDBRANCH  12  17
ENDBRANCH   1  11
TORSDOF 2
ENDMDL
MODEL 4
REMARK VINA RESULT:      -6.4      1.630      3.065
REMARK  2 active torsions:
REMARK  status: ('A' for Active; 'I' for Inactive)
REMARK    1  A    between atoms: C1_1  and  C2_2 
REMARK       I    between atoms: C1_1  and  N1_10 
REMARK    2  A    between atoms: C3_3  and  O1_4 
ROOT
ATOM      1  C1   11 d         -13.714 207.884 115.295  0.00  0.00     0.256 C 
ATOM      2  N1   11 d         -13.679 207.030 116.433  0.00  0.00    -0.345 N 
ATOM      3  C9   11 d         -13.010 207.496 117.684  0.00  0.00     0.153 C 
ATOM      4  C10  11 d         -12.268 206.349 118.374  0.00  0.00     0.252 C 
ATOM      5  N2   11 d         -13.114 205.121 118.455  0.00  0.00    -0.072 N 
ATOM      6  C11  11 d         -13.519 204.634 117.103  0.00  0.00     0.252 C 
ATOM      7  C12  11 d         -14.336 205.690 116.352  0.00  0.00     0.153 C 
ATOM      8  O2   11 d         -14.526 208.871 115.331  0.00  0.00    -0.267 OA
ATOM      9  H12  11 d         -12.561 204.347 118.954  0.00  0.00     0.277 HD
ATOM     10  H13  11 d         -13.988 205.320 119.046  0.00  0.00     0.277 HD
ENDROOT
BRANCH   1  11
ATOM     11  C2   11 d         -12.836 207.647 114.107  0.00  0.00     0.065 A 
ATOM     12  C3   11 d         -11.468 208.025 114.098  0.00  0.00     0.084 A 
ATOM     13  C5   11 d         -10.701 207.853 112.931  0.00  0.00     0.038 A 
ATOM     14  C6   11 d         -11.256 207.251 111.796  0.00  0.00     0.003 A 
ATOM     15  C7   11 d         -12.594 206.841 111.808  0.00  0.00     0.001 A 
ATOM     16  C8   11 d         -13.380 207.042 112.952  0.00  0.00     0.020 A 
BRANCH  12  17
ATOM     17  O1   11 d         -10.888 208.737 115.182  0.00  0.00    -0.355 OA
ATOM     18  C4   11 d          -9.537 209.145 114.843  0.00  0.00     0.210 C 
ENDBRANCH  12  17
ENDBRANCH   1  11
TORSDOF 2
ENDMDL
MODEL 5
REMARK VINA RESULT:      -6.0      3.000      4.985
REMARK  2 active torsions:
REMARK  status: ('A' for Active; 'I' for Inactive)
REMARK    1  A    between atoms: C1_1  and  C2_2 
REMARK       I    between atoms: C1_1  and  N1_10 
REMARK    2  A    between atoms: C3_3  and  O1_4 
ROOT
ATOM      1  C1   11 d         -12.553 206.476 113.622  0.00  0.00     0.256 C 
ATOM      2  N1   11 d         -13.721 206.351 112.819  0.00  0.00    -0.345 N 
ATOM      3  C9   11 d         -13.919 205.123 111.993  0.00  0.00     0.153 C 
ATOM      4  C10  11 d         -14.563 205.461 110.646  0.00  0.00     0.252 C 
ATOM      5  N2   11 d         -15.727 206.381 110.811  0.00  0.00    -0.072 N 
ATOM      6  C11  11 d         -15.328 207.673 111.446  0.00  0.00     0.252 C 
ATOM      7  C12  11 d         -14.735 207.449 112.841  0.00  0.00     0.153 C 
ATOM      8  O2   11 d         -12.503 205.779 114.692  0.00  0.00    -0.267 OA
ATOM      9  H12  11 d         -16.154 206.583 109.847  0.00  0.00     0.277 HD
ATOM     10  H13  11 d         -16.486 205.905 111.403  0.00  0.00     0.277 HD
ENDROOT
BRANCH   1  11
ATOM     11  C2   11 d         -11.424 207.377 113.231  0.00  0.00     0.065 A 
ATOM     12  C3   11 d         -11.047 207.565 111.877  0.00  0.00     0.084 A 
ATOM     13  C5   11 d          -9.931 208.361 111.563  0.00  0.00     0.038 A 
ATOM     14  C6   11 d          -9.223 209.025 112.572  0.00  0.00     0.003 A 
ATOM     15  C7   11 d          -9.610 208.876 113.909  0.00  0.00     0.001 A 
ATOM     16  C8   11 d         -10.698 208.055 114.237  0.00  0.00     0.020 A 
BRANCH  12  17
ATOM     17  O1   11 d         -11.662 206.829 110.828  0.00  0.00    -0.355 OA
ATOM     18  C4   11 d         -11.530 207.548 109.574  0.00  0.00     0.210 C 
ENDBRANCH  12  17
ENDBRANCH   1  11
TORSDOF 2
ENDMDL
MODEL 6
REMARK VINA RESULT:      -5.9      2.966      4.599
REMARK  2 active torsions:
REMARK  status: ('A' for Active; 'I' for Inactive)
REMARK    1  A    between atoms: C1_1  and  C2_2 
REMARK       I    between atoms: C1_1  and  N1_10 
REMARK    2  A    between atoms: C3_3  and  O1_4 
ROOT
ATOM      1  C1   11 d         -11.081 208.124 115.521  0.00  0.00     0.256 C 
ATOM      2  N1   11 d         -12.322 207.556 115.925  0.00  0.00    -0.345 N 
ATOM      3  C9   11 d         -12.337 206.216 116.585  0.00  0.00     0.153 C 
ATOM      4  C10  11 d         -13.550 205.395 116.140  0.00  0.00     0.252 C 
ATOM      5  N2   11 d         -14.804 206.205 116.181  0.00  0.00    -0.072 N 
ATOM      6  C11  11 d         -14.726 207.397 115.285  0.00  0.00     0.252 C 
ATOM      7  C12  11 d         -13.581 208.328 115.696  0.00  0.00     0.153 C 
ATOM      8  O2   11 d         -10.329 208.597 116.441  0.00  0.00    -0.267 OA
ATOM      9  H12  11 d         -15.628 205.590 115.872  0.00  0.00     0.277 HD
ATOM     10  H13  11 d         -15.001 206.519 117.188  0.00  0.00     0.277 HD
ENDROOT
BRANCH   1  11
ATOM     11  C2   11 d         -10.665 208.164 114.085  0.00  0.00     0.065 A 
ATOM     12  C3   11 d          -9.546 208.918 113.647  0.00  0.00     0.084 A 
ATOM     13  C5   11 d          -9.239 208.987 112.276  0.00  0.00     0.038 A 
ATOM     14  C6   11 d          -9.990 208.265 111.341  0.00  0.00     0.003 A 
ATOM     15  C7   11 d         -11.073 207.488 111.766  0.00  0.00     0.001 A 
ATOM     16  C8   11 d         -11.413 207.442 113.126  0.00  0.00     0.020 A 
BRANCH  12  17
ATOM     17  O1   11 d          -8.821 209.753 114.539  0.00  0.00    -0.355 OA
ATOM     18  C4   11 d          -7.403 209.691 114.235  0.00  0.00     0.210 C 
ENDBRANCH  12  17
ENDBRANCH   1  11
TORSDOF 2
ENDMDL
MODEL 7
REMARK VINA RESULT:      -5.8      1.944      5.158
REMARK  2 active torsions:
REMARK  status: ('A' for Active; 'I' for Inactive)
REMARK    1  A    between atoms: C1_1  and  C2_2 
REMARK       I    between atoms: C1_1  and  N1_10 
REMARK    2  A    between atoms: C3_3  and  O1_4 
ROOT
ATOM      1  C1   11 d         -14.269 207.668 114.818  0.00  0.00     0.256 C 
ATOM      2  N1   11 d         -13.605 207.583 113.562  0.00  0.00    -0.345 N 
ATOM      3  C9   11 d         -14.406 207.370 112.319  0.00  0.00     0.153 C 
ATOM      4  C10  11 d         -13.673 206.447 111.342  0.00  0.00     0.252 C 
ATOM      5  N2   11 d         -12.241 206.840 111.187  0.00  0.00    -0.072 N 
ATOM      6  C11  11 d         -11.505 206.781 112.485  0.00  0.00     0.252 C 
ATOM      7  C12  11 d         -12.119 207.732 113.517  0.00  0.00     0.153 C 
ATOM      8  O2   11 d         -14.903 208.749 115.072  0.00  0.00    -0.267 OA
ATOM      9  H12  11 d         -11.770 206.176 110.488  0.00  0.00     0.277 HD
ATOM     10  H13  11 d         -12.178 207.831 110.778  0.00  0.00     0.277 HD
ENDROOT
BRANCH   1  11
ATOM     11  C2   11 d         -14.236 206.540 115.801  0.00  0.00     0.065 A 
ATOM     12  C3   11 d         -13.437 206.588 116.973  0.00  0.00     0.084 A 
ATOM     13  C5   11 d         -13.379 205.473 117.828  0.00  0.00     0.038 A 
ATOM     14  C6   11 d         -14.154 204.336 117.570  0.00  0.00     0.003 A 
ATOM     15  C7   11 d         -14.974 204.294 116.437  0.00  0.00     0.001 A 
ATOM     16  C8   11 d         -15.012 205.384 115.556  0.00  0.00     0.020 A 
BRANCH  12  17
ATOM     17  O1   11 d         -12.551 207.671 117.222  0.00  0.00    -0.355 OA
ATOM     18  C4   11 d         -11.177 207.208 117.177  0.00  0.00     0.210 C 
ENDBRANCH  12  17
ENDBRANCH   1  11
TORSDOF 2
ENDMDL
MODEL 8
REMARK VINA RESULT:      -5.8      6.547      7.751
REMARK  2 active torsions:
REMARK  status: ('A' for Active; 'I' for Inactive)
REMARK    1  A    between atoms: C1_1  and  C2_2 
REMARK       I    between atoms: C1_1  and  N1_10 
REMARK    2  A    between atoms: C3_3  and  O1_4 
ROOT
ATOM      1  C1   11 d          -6.590 209.886 114.468  0.00  0.00     0.256 C 
ATOM      2  N1   11 d          -5.341 209.204 114.443  0.00  0.00    -0.345 N 
ATOM      3  C9   11 d          -4.252 209.695 113.546  0.00  0.00     0.153 C 
ATOM      4  C10  11 d          -3.466 208.529 112.942  0.00  0.00     0.252 C 
ATOM      5  N2   11 d          -3.109 207.514 113.978  0.00  0.00    -0.072 N 
ATOM      6  C11  11 d          -4.321 206.938 114.632  0.00  0.00     0.252 C 
ATOM      7  C12  11 d          -5.144 208.021 115.335  0.00  0.00     0.153 C 
ATOM      8  O2   11 d          -6.630 211.009 115.077  0.00  0.00    -0.267 OA
ATOM      9  H12  11 d          -2.552 206.722 113.514  0.00  0.00     0.277 HD
ATOM     10  H13  11 d          -2.473 207.960 114.719  0.00  0.00     0.277 HD
ENDROOT
BRANCH   1  11
ATOM     11  C2   11 d          -7.807 209.321 113.804  0.00  0.00     0.065 A 
ATOM     12  C3   11 d          -8.932 208.882 114.548  0.00  0.00     0.084 A 
ATOM     13  C5   11 d         -10.021 208.287 113.887  0.00  0.00     0.038 A 
ATOM     14  C6   11 d         -10.036 208.181 112.491  0.00  0.00     0.003 A 
ATOM     15  C7   11 d          -8.947 208.646 111.745  0.00  0.00     0.001 A 
ATOM     16  C8   11 d          -7.838 209.206 112.396  0.00  0.00     0.020 A 
BRANCH  12  17
ATOM     17  O1   11 d          -8.921 208.866 115.969  0.00  0.00    -0.355 OA
ATOM     18  C4   11 d         -10.225 208.476 116.472  0.00  0.00     0.210 C 
ENDBRANCH  12  17
ENDBRANCH   1  11
TORSDOF 2
ENDMDL
MODEL 9
REMARK VINA RESULT:      -5.7      2.823      4.082
REMARK  2 active torsions:
REMARK  status: ('A' for Active; 'I' for Inactive)
REMARK    1  A    between atoms: C1_1  and  C2_2 
REMARK       I    between atoms: C1_1  and  N1_10 
REMARK    2  A    between atoms: C3_3  and  O1_4 
ROOT
ATOM      1  C1   11 d         -11.177 207.476 115.801  0.00  0.00     0.256 C 
ATOM      2  N1   11 d         -12.571 207.193 115.749  0.00  0.00    -0.345 N 
ATOM      3  C9   11 d         -13.030 205.782 115.577  0.00  0.00     0.153 C 
ATOM      4  C10  11 d         -14.267 205.710 114.680  0.00  0.00     0.252 C 
ATOM      5  N2   11 d         -15.287 206.729 115.069  0.00  0.00    -0.072 N 
ATOM      6  C11  11 d         -14.749 208.119 114.968  0.00  0.00     0.252 C 
ATOM      7  C12  11 d         -13.544 208.318 115.892  0.00  0.00     0.153 C 
ATOM      8  O2   11 d         -10.558 207.170 116.877  0.00  0.00    -0.267 OA
ATOM      9  H12  11 d         -16.139 206.636 114.423  0.00  0.00     0.277 HD
ATOM     10  H13  11 d         -15.624 206.541 116.071  0.00  0.00     0.277 HD
ENDROOT
BRANCH   1  11
ATOM     11  C2   11 d         -10.459 208.098 114.645  0.00  0.00     0.065 A 
ATOM     12  C3   11 d         -10.612 207.617 113.319  0.00  0.00     0.084 A 
ATOM     13  C5   11 d          -9.857 208.183 112.276  0.00  0.00     0.038 A 
ATOM     14  C6   11 d          -9.001 209.263 112.521  0.00  0.00     0.003 A 
ATOM     15  C7   11 d          -8.870 209.769 113.819  0.00  0.00     0.001 A 
ATOM     16  C8   11 d          -9.589 209.188 114.874  0.00  0.00     0.020 A 
BRANCH  12  17
ATOM     17  O1   11 d         -11.383 206.457 113.036  0.00  0.00    -0.355 OA
ATOM     18  C4   11 d         -12.032 206.595 111.745  0.00  0.00     0.210 C 
ENDBRANCH  12  17
ENDBRANCH   1  11
TORSDOF 2
ENDMDL
MODEL 10
REMARK VINA RESULT:      -5.5      6.883      8.222
REMARK  2 active torsions:
REMARK  status: ('A' for Active; 'I' for Inactive)
REMARK    1  A    between atoms: C1_1  and  C2_2 
REMARK       I    between atoms: C1_1  and  N1_10 
REMARK    2  A    between atoms: C3_3  and  O1_4 
ROOT
ATOM      1  C1   11 d          -6.268 210.162 115.342  0.00  0.00     0.256 C 
ATOM      2  N1   11 d          -5.698 209.359 116.370  0.00  0.00    -0.345 N 
ATOM      3  C9   11 d          -4.217 209.171 116.421  0.00  0.00     0.153 C 
ATOM      4  C10  11 d          -3.855 207.748 116.851  0.00  0.00     0.252 C 
ATOM      5  N2   11 d          -4.652 207.316 118.038  0.00  0.00    -0.072 N 
ATOM      6  C11  11 d          -6.118 207.333 117.759  0.00  0.00     0.252 C 
ATOM      7  C12  11 d          -6.599 208.739 117.388  0.00  0.00     0.153 C 
ATOM      8  O2   11 d          -6.137 211.429 115.451  0.00  0.00    -0.267 OA
ATOM      9  H12  11 d          -4.360 206.319 118.312  0.00  0.00     0.277 HD
ATOM     10  H13  11 d          -4.433 207.953 118.874  0.00  0.00     0.277 HD
ENDROOT
BRANCH   1  11
ATOM     11  C2   11 d          -6.985 209.555 114.178  0.00  0.00     0.065 A 
ATOM     12  C3   11 d          -6.290 208.929 113.111  0.00  0.00     0.084 A 
ATOM     13  C5   11 d          -7.002 208.441 112.000  0.00  0.00     0.038 A 
ATOM     14  C6   11 d          -8.400 208.508 111.965  0.00  0.00     0.003 A 
ATOM     15  C7   11 d          -9.097 209.090 113.029  0.00  0.00     0.001 A 
ATOM     16  C8   11 d          -8.396 209.614 114.125  0.00  0.00     0.020 A 
BRANCH  12  17
ATOM     17  O1   11 d          -4.870 208.933 113.048  0.00  0.00    -0.355 OA
ATOM     18  C4   11 d          -4.418 208.054 111.986  0.00  0.00     0.210 C 
ENDBRANCH  12  17
ENDBRANCH   1  11
TORSDOF 2
ENDMDL
