MODEL 1
REMARK VINA RESULT:      -9.6      0.000      0.000
REMARK  6 active torsions:
REMARK  status: ('A' for Active; 'I' for Inactive)
REMARK    1  A    between atoms: C3_3  and  C4_4 
REMARK    2  A    between atoms: C3_3  and  O1_17 
REMARK    3  A    between atoms: C11_11  and  S1_26 
REMARK    4  A    between atoms: N1_14  and  S1_26 
REMARK    5  A    between atoms: C14_16  and  O1_17 
REMARK    6  A    between atoms: N6_23  and  C17_24 
ROOT
ATOM      1  C1  <1> d           3.529  43.199  52.137  0.00  0.00     0.225 A 
ATOM      2  C2  <1> d           3.420  46.080  55.518  0.00  0.00     0.199 A 
ATOM      3  N2  <1> d           4.220  44.274  51.463  0.00  0.00    -0.177 NA
ATOM      4  C14 <1> d           4.444  45.373  52.149  0.00  0.00     0.248 A 
ATOM      5  C15 <1> d           3.956  45.559  53.478  0.00  0.00     0.169 A 
ATOM      6  N3  <1> d           4.065  46.557  54.488  0.00  0.00    -0.229 NA
ATOM      7  N4  <1> d           2.943  44.858  55.294  0.00  0.00    -0.329 N 
ATOM      8  C16 <1> d           3.306  44.567  54.072  0.00  0.00     0.167 A 
ATOM      9  N5  <1> d           3.074  43.412  53.307  0.00  0.00    -0.195 NA
ATOM     10  N6  <1> d           3.245  42.103  51.484  0.00  0.00    -0.283 N 
ATOM     11  H20 <1> d           2.420  44.285  55.925  0.00  0.00     0.168 HD
ATOM     12  H21 <1> d           2.982  41.293  52.010  0.00  0.00     0.155 HD
ENDROOT
BRANCH  10  13
ATOM     13  C17 <1> d           3.291  42.003  50.111  0.00  0.00     0.034 A 
ATOM     14  C13 <1> d           2.360  42.451  49.171  0.00  0.00     0.025 A 
ATOM     15  C12 <1> d           2.476  42.292  47.811  0.00  0.00     0.030 A 
ATOM     16  C11 <1> d           3.610  41.563  47.293  0.00  0.00     0.105 A 
ATOM     17  C10 <1> d           4.515  41.066  48.197  0.00  0.00     0.030 A 
ATOM     18  C18 <1> d           4.373  41.290  49.552  0.00  0.00     0.025 A 
BRANCH  16  19
ATOM     19  S1  <1> d           3.780  41.226  45.592  0.00  0.00     0.056 S 
ATOM     20  O2  <1> d           3.797  39.779  45.439  0.00  0.00    -0.153 OA
ATOM     21  O3  <1> d           4.895  41.943  44.984  0.00  0.00    -0.153 OA
BRANCH  19  22
ATOM     22  N1  <1> d           2.484  41.755  44.850  0.00  0.00    -0.203 NA
ATOM     23  H18 <1> d           2.112  42.540  45.347  0.00  0.00     0.144 HD
ATOM     24  H19 <1> d           1.799  41.028  44.815  0.00  0.00     0.144 HD
ENDBRANCH  19  22
ENDBRANCH  16  19
ENDBRANCH  10  13
BRANCH   4  25
ATOM     25  O1  <1> d           5.153  46.386  51.669  0.00  0.00    -0.474 OA
BRANCH  25  26
ATOM     26  C3  <1> d           6.440  45.781  51.243  0.00  0.00     0.234 C 
BRANCH  26  27
ATOM     27  C4  <1> d           7.592  46.658  51.816  0.00  0.00     0.027 C 
ATOM     28  C5  <1> d           8.967  45.951  51.983  0.00  0.00     0.007 C 
ATOM     29  C6  <1> d          10.119  46.816  52.480  0.00  0.00     0.000 C 
ATOM     30  C7  <1> d           9.736  47.536  53.866  0.00  0.00     0.000 C 
ATOM     31  C8  <1> d           8.414  48.264  53.648  0.00  0.00     0.000 C 
ATOM     32  C9  <1> d           7.216  47.398  53.116  0.00  0.00     0.007 C 
ENDBRANCH  26  27
ENDBRANCH  25  26
ENDBRANCH   4  25
TORSDOF 6
ENDMDL
MODEL 2
REMARK VINA RESULT:      -9.2      2.815      5.072
REMARK  6 active torsions:
REMARK  status: ('A' for Active; 'I' for Inactive)
REMARK    1  A    between atoms: C3_3  and  C4_4 
REMARK    2  A    between atoms: C3_3  and  O1_17 
REMARK    3  A    between atoms: C11_11  and  S1_26 
REMARK    4  A    between atoms: N1_14  and  S1_26 
REMARK    5  A    between atoms: C14_16  and  O1_17 
REMARK    6  A    between atoms: N6_23  and  C17_24 
ROOT
ATOM      1  C1  <1> d           7.659  43.983  49.837  0.00  0.00     0.225 A 
ATOM      2  C2  <1> d          10.058  46.951  52.112  0.00  0.00     0.199 A 
ATOM      3  N2  <1> d           6.542  44.666  50.451  0.00  0.00    -0.177 NA
ATOM      4  C14 <1> d           6.814  45.693  51.226  0.00  0.00     0.248 A 
ATOM      5  C15 <1> d           8.151  46.084  51.539  0.00  0.00     0.169 A 
ATOM      6  N3  <1> d           8.775  47.139  52.263  0.00  0.00    -0.229 NA
ATOM      7  N4  <1> d          10.328  45.911  51.328  0.00  0.00    -0.329 N 
ATOM      8  C16 <1> d           9.162  45.431  50.981  0.00  0.00     0.167 A 
ATOM      9  N5  <1> d           8.837  44.333  50.168  0.00  0.00    -0.195 NA
ATOM     10  N6  <1> d           7.444  42.931  49.093  0.00  0.00    -0.283 N 
ATOM     11  H20 <1> d          11.230  45.569  51.062  0.00  0.00     0.168 HD
ATOM     12  H21 <1> d           8.182  42.612  48.498  0.00  0.00     0.155 HD
ENDROOT
BRANCH  10  13
ATOM     13  C17 <1> d           6.253  42.238  49.084  0.00  0.00     0.034 A 
ATOM     14  C13 <1> d           5.487  41.801  50.167  0.00  0.00     0.025 A 
ATOM     15  C12 <1> d           4.313  41.094  50.067  0.00  0.00     0.030 A 
ATOM     16  C11 <1> d           3.842  40.715  48.755  0.00  0.00     0.105 A 
ATOM     17  C10 <1> d           4.602  41.085  47.674  0.00  0.00     0.030 A 
ATOM     18  C18 <1> d           5.753  41.831  47.827  0.00  0.00     0.025 A 
BRANCH  16  19
ATOM     19  S1  <1> d           2.421  39.729  48.545  0.00  0.00     0.056 S 
ATOM     20  O2  <1> d           2.688  38.817  47.443  0.00  0.00    -0.153 OA
ATOM     21  O3  <1> d           1.199  40.519  48.435  0.00  0.00    -0.153 OA
BRANCH  19  22
ATOM     22  N1  <1> d           2.235  38.844  49.845  0.00  0.00    -0.203 NA
ATOM     23  H18 <1> d           1.781  39.383  50.554  0.00  0.00     0.144 HD
ATOM     24  H19 <1> d           3.131  38.545  50.176  0.00  0.00     0.144 HD
ENDBRANCH  19  22
ENDBRANCH  16  19
ENDBRANCH  10  13
BRANCH   4  25
ATOM     25  O1  <1> d           5.870  46.455  51.763  0.00  0.00    -0.474 OA
BRANCH  25  26
ATOM     26  C3  <1> d           5.606  45.851  53.093  0.00  0.00     0.234 C 
BRANCH  26  27
ATOM     27  C4  <1> d           4.143  45.318  53.092  0.00  0.00     0.027 C 
ATOM     28  C5  <1> d           3.971  43.804  52.782  0.00  0.00     0.007 C 
ATOM     29  C6  <1> d           2.550  43.255  52.843  0.00  0.00     0.000 C 
ATOM     30  C7  <1> d           1.572  44.095  51.882  0.00  0.00     0.000 C 
ATOM     31  C8  <1> d           1.725  45.566  52.254  0.00  0.00     0.000 C 
ATOM     32  C9  <1> d           3.184  46.149  52.218  0.00  0.00     0.007 C 
ENDBRANCH  26  27
ENDBRANCH  25  26
ENDBRANCH   4  25
TORSDOF 6
ENDMDL
MODEL 3
REMARK VINA RESULT:      -9.2      3.561      7.233
REMARK  6 active torsions:
REMARK  status: ('A' for Active; 'I' for Inactive)
REMARK    1  A    between atoms: C3_3  and  C4_4 
REMARK    2  A    between atoms: C3_3  and  O1_17 
REMARK    3  A    between atoms: C11_11  and  S1_26 
REMARK    4  A    between atoms: N1_14  and  S1_26 
REMARK    5  A    between atoms: C14_16  and  O1_17 
REMARK    6  A    between atoms: N6_23  and  C17_24 
ROOT
ATOM      1  C1  <1> d           6.474  42.408  49.270  0.00  0.00     0.225 A 
ATOM      2  C2  <1> d           3.077  39.832  48.018  0.00  0.00     0.199 A 
ATOM      3  N2  <1> d           5.703  42.546  50.485  0.00  0.00    -0.177 NA
ATOM      4  C14 <1> d           4.570  41.883  50.560  0.00  0.00     0.248 A 
ATOM      5  C15 <1> d           4.053  41.123  49.467  0.00  0.00     0.169 A 
ATOM      6  N3  <1> d           2.936  40.271  49.240  0.00  0.00    -0.229 NA
ATOM      7  N4  <1> d           4.193  40.277  47.447  0.00  0.00    -0.329 N 
ATOM      8  C16 <1> d           4.767  41.026  48.353  0.00  0.00     0.167 A 
ATOM      9  N5  <1> d           5.966  41.755  48.302  0.00  0.00    -0.195 NA
ATOM     10  N6  <1> d           7.586  43.080  49.130  0.00  0.00    -0.283 N 
ATOM     11  H20 <1> d           4.524  40.080  46.524  0.00  0.00     0.168 HD
ATOM     12  H21 <1> d           8.217  42.806  48.403  0.00  0.00     0.155 HD
ENDROOT
BRANCH  10  13
ATOM     13  C17 <1> d           7.936  44.145  49.931  0.00  0.00     0.034 A 
ATOM     14  C13 <1> d           9.201  44.506  50.402  0.00  0.00     0.025 A 
ATOM     15  C12 <1> d           9.458  45.581  51.219  0.00  0.00     0.030 A 
ATOM     16  C11 <1> d           8.349  46.381  51.683  0.00  0.00     0.105 A 
ATOM     17  C10 <1> d           7.089  46.017  51.279  0.00  0.00     0.030 A 
ATOM     18  C18 <1> d           6.888  44.952  50.423  0.00  0.00     0.025 A 
BRANCH  16  19
ATOM     19  S1  <1> d           8.576  47.695  52.804  0.00  0.00     0.056 S 
ATOM     20  O2  <1> d           8.342  48.931  52.072  0.00  0.00    -0.153 OA
ATOM     21  O3  <1> d           9.844  47.611  53.521  0.00  0.00    -0.153 OA
BRANCH  19  22
ATOM     22  N1  <1> d           7.455  47.595  53.917  0.00  0.00    -0.203 NA
ATOM     23  H18 <1> d           6.554  47.573  53.484  0.00  0.00     0.144 HD
ATOM     24  H19 <1> d           7.513  48.390  54.523  0.00  0.00     0.144 HD
ENDBRANCH  19  22
ENDBRANCH  16  19
ENDBRANCH  10  13
BRANCH   4  25
ATOM     25  O1  <1> d           3.828  41.855  51.659  0.00  0.00    -0.474 OA
BRANCH  25  26
ATOM     26  C3  <1> d           2.847  42.955  51.484  0.00  0.00     0.234 C 
BRANCH  26  27
ATOM     27  C4  <1> d           3.490  44.260  52.036  0.00  0.00     0.027 C 
ATOM     28  C5  <1> d           4.001  44.200  53.503  0.00  0.00     0.007 C 
ATOM     29  C6  <1> d           4.692  45.451  54.034  0.00  0.00     0.000 C 
ATOM     30  C7  <1> d           3.746  46.740  53.868  0.00  0.00     0.000 C 
ATOM     31  C8  <1> d           3.311  46.799  52.408  0.00  0.00     0.000 C 
ATOM     32  C9  <1> d           2.615  45.513  51.832  0.00  0.00     0.007 C 
ENDBRANCH  26  27
ENDBRANCH  25  26
ENDBRANCH   4  25
TORSDOF 6
ENDMDL
MODEL 4
REMARK VINA RESULT:      -8.9      3.951      6.983
REMARK  6 active torsions:
REMARK  status: ('A' for Active; 'I' for Inactive)
REMARK    1  A    between atoms: C3_3  and  C4_4 
REMARK    2  A    between atoms: C3_3  and  O1_17 
REMARK    3  A    between atoms: C11_11  and  S1_26 
REMARK    4  A    between atoms: N1_14  and  S1_26 
REMARK    5  A    between atoms: C14_16  and  O1_17 
REMARK    6  A    between atoms: N6_23  and  C17_24 
ROOT
ATOM      1  C1  <1> d           2.248  45.546  54.350  0.00  0.00     0.225 A 
ATOM      2  C2  <1> d          -0.769  42.448  53.325  0.00  0.00     0.199 A 
ATOM      3  N2  <1> d           2.818  45.171  53.075  0.00  0.00    -0.177 NA
ATOM      4  C14 <1> d           2.187  44.253  52.377  0.00  0.00     0.248 A 
ATOM      5  C15 <1> d           1.034  43.573  52.871  0.00  0.00     0.169 A 
ATOM      6  N3  <1> d           0.110  42.611  52.373  0.00  0.00    -0.229 NA
ATOM      7  N4  <1> d          -0.535  43.238  54.370  0.00  0.00    -0.329 N 
ATOM      8  C16 <1> d           0.538  43.917  54.053  0.00  0.00     0.167 A 
ATOM      9  N5  <1> d           1.242  44.892  54.777  0.00  0.00    -0.195 NA
ATOM     10  N6  <1> d           2.861  46.423  55.100  0.00  0.00    -0.283 N 
ATOM     11  H20 <1> d          -1.064  43.300  55.216  0.00  0.00     0.168 HD
ATOM     12  H21 <1> d           2.352  46.839  55.854  0.00  0.00     0.155 HD
ENDROOT
BRANCH  10  13
ATOM     13  C17 <1> d           4.170  46.804  54.907  0.00  0.00     0.034 A 
ATOM     14  C13 <1> d           4.675  48.063  54.575  0.00  0.00     0.025 A 
ATOM     15  C12 <1> d           6.004  48.352  54.381  0.00  0.00     0.030 A 
ATOM     16  C11 <1> d           6.967  47.280  54.469  0.00  0.00     0.105 A 
ATOM     17  C10 <1> d           6.494  46.021  54.743  0.00  0.00     0.030 A 
ATOM     18  C18 <1> d           5.152  45.791  54.970  0.00  0.00     0.025 A 
BRANCH  16  19
ATOM     19  S1  <1> d           8.657  47.539  54.135  0.00  0.00     0.056 S 
ATOM     20  O2  <1> d           8.754  48.726  53.298  0.00  0.00    -0.153 OA
ATOM     21  O3  <1> d           9.320  46.344  53.625  0.00  0.00    -0.153 OA
BRANCH  19  22
ATOM     22  N1  <1> d           9.386  47.875  55.501  0.00  0.00    -0.203 NA
ATOM     23  H18 <1> d           8.881  48.592  55.981  0.00  0.00     0.144 HD
ATOM     24  H19 <1> d          10.316  48.191  55.313  0.00  0.00     0.144 HD
ENDBRANCH  19  22
ENDBRANCH  16  19
ENDBRANCH  10  13
BRANCH   4  25
ATOM     25  O1  <1> d           2.561  43.901  51.154  0.00  0.00    -0.474 OA
BRANCH  25  26
ATOM     26  C3  <1> d           3.734  43.015  51.356  0.00  0.00     0.234 C 
BRANCH  26  27
ATOM     27  C4  <1> d           4.950  43.659  50.628  0.00  0.00     0.027 C 
ATOM     28  C5  <1> d           6.046  42.675  50.131  0.00  0.00     0.007 C 
ATOM     29  C6  <1> d           7.209  43.287  49.359  0.00  0.00     0.000 C 
ATOM     30  C7  <1> d           7.911  44.455  50.214  0.00  0.00     0.000 C 
ATOM     31  C8  <1> d           6.816  45.429  50.634  0.00  0.00     0.000 C 
ATOM     32  C9  <1> d           5.596  44.818  51.413  0.00  0.00     0.007 C 
ENDBRANCH  26  27
ENDBRANCH  25  26
ENDBRANCH   4  25
TORSDOF 6
ENDMDL
MODEL 5
REMARK VINA RESULT:      -8.9      4.178      7.286
REMARK  6 active torsions:
REMARK  status: ('A' for Active; 'I' for Inactive)
REMARK    1  A    between atoms: C3_3  and  C4_4 
REMARK    2  A    between atoms: C3_3  and  O1_17 
REMARK    3  A    between atoms: C11_11  and  S1_26 
REMARK    4  A    between atoms: N1_14  and  S1_26 
REMARK    5  A    between atoms: C14_16  and  O1_17 
REMARK    6  A    between atoms: N6_23  and  C17_24 
ROOT
ATOM      1  C1  <1> d           2.096  45.893  54.977  0.00  0.00     0.225 A 
ATOM      2  C2  <1> d          -1.668  43.542  54.771  0.00  0.00     0.199 A 
ATOM      3  N2  <1> d           2.371  45.248  53.713  0.00  0.00    -0.177 NA
ATOM      4  C14 <1> d           1.449  44.442  53.233  0.00  0.00     0.248 A 
ATOM      5  C15 <1> d           0.257  44.127  53.952  0.00  0.00     0.169 A 
ATOM      6  N3  <1> d          -0.927  43.374  53.710  0.00  0.00    -0.229 NA
ATOM      7  N4  <1> d          -1.107  44.362  55.656  0.00  0.00    -0.329 N 
ATOM      8  C16 <1> d           0.033  44.715  55.121  0.00  0.00     0.167 A 
ATOM      9  N5  <1> d           1.042  45.560  55.609  0.00  0.00    -0.195 NA
ATOM     10  N6  <1> d           2.998  46.670  55.516  0.00  0.00    -0.283 N 
ATOM     11  H20 <1> d          -1.477  44.648  56.540  0.00  0.00     0.168 HD
ATOM     12  H21 <1> d           2.716  47.281  56.255  0.00  0.00     0.155 HD
ENDROOT
BRANCH  10  13
ATOM     13  C17 <1> d           4.317  46.692  55.118  0.00  0.00     0.034 A 
ATOM     14  C13 <1> d           5.254  45.656  55.141  0.00  0.00     0.025 A 
ATOM     15  C12 <1> d           6.564  45.771  54.740  0.00  0.00     0.030 A 
ATOM     16  C11 <1> d           7.047  47.062  54.310  0.00  0.00     0.105 A 
ATOM     17  C10 <1> d           6.161  48.111  54.328  0.00  0.00     0.030 A 
ATOM     18  C18 <1> d           4.844  47.933  54.700  0.00  0.00     0.025 A 
BRANCH  16  19
ATOM     19  S1  <1> d           8.717  47.319  53.887  0.00  0.00     0.056 S 
ATOM     20  O2  <1> d           8.756  48.415  52.931  0.00  0.00    -0.153 OA
ATOM     21  O3  <1> d           9.389  46.091  53.475  0.00  0.00    -0.153 OA
BRANCH  19  22
ATOM     22  N1  <1> d           9.487  47.806  55.183  0.00  0.00    -0.203 NA
ATOM     23  H18 <1> d           9.876  48.712  55.019  0.00  0.00     0.144 HD
ATOM     24  H19 <1> d          10.221  47.161  55.397  0.00  0.00     0.144 HD
ENDBRANCH  19  22
ENDBRANCH  16  19
ENDBRANCH  10  13
BRANCH   4  25
ATOM     25  O1  <1> d           1.547  43.872  52.039  0.00  0.00    -0.474 OA
BRANCH  25  26
ATOM     26  C3  <1> d           2.614  42.852  52.191  0.00  0.00     0.234 C 
BRANCH  26  27
ATOM     27  C4  <1> d           3.726  43.167  51.148  0.00  0.00     0.027 C 
ATOM     28  C5  <1> d           4.199  41.970  50.275  0.00  0.00     0.007 C 
ATOM     29  C6  <1> d           5.240  42.279  49.205  0.00  0.00     0.000 C 
ATOM     30  C7  <1> d           6.531  42.989  49.852  0.00  0.00     0.000 C 
ATOM     31  C8  <1> d           6.034  44.188  50.653  0.00  0.00     0.000 C 
ATOM     32  C9  <1> d           4.945  43.898  51.747  0.00  0.00     0.007 C 
ENDBRANCH  26  27
ENDBRANCH  25  26
ENDBRANCH   4  25
TORSDOF 6
ENDMDL
MODEL 6
REMARK VINA RESULT:      -8.5      4.119      6.752
REMARK  6 active torsions:
REMARK  status: ('A' for Active; 'I' for Inactive)
REMARK    1  A    between atoms: C3_3  and  C4_4 
REMARK    2  A    between atoms: C3_3  and  O1_17 
REMARK    3  A    between atoms: C11_11  and  S1_26 
REMARK    4  A    between atoms: N1_14  and  S1_26 
REMARK    5  A    between atoms: C14_16  and  O1_17 
REMARK    6  A    between atoms: N6_23  and  C17_24 
ROOT
ATOM      1  C1  <1> d           2.820  43.158  51.949  0.00  0.00     0.225 A 
ATOM      2  C2  <1> d           6.733  42.529  49.939  0.00  0.00     0.199 A 
ATOM      3  N2  <1> d           3.329  44.496  52.150  0.00  0.00    -0.177 NA
ATOM      4  C14 <1> d           4.515  44.772  51.655  0.00  0.00     0.248 A 
ATOM      5  C15 <1> d           5.329  43.786  51.019  0.00  0.00     0.169 A 
ATOM      6  N3  <1> d           6.583  43.761  50.346  0.00  0.00    -0.229 NA
ATOM      7  N4  <1> d           5.685  41.766  50.239  0.00  0.00    -0.329 N 
ATOM      8  C16 <1> d           4.851  42.558  50.863  0.00  0.00     0.167 A 
ATOM      9  N5  <1> d           3.587  42.294  51.413  0.00  0.00    -0.195 NA
ATOM     10  N6  <1> d           1.665  42.822  52.458  0.00  0.00    -0.283 N 
ATOM     11  H20 <1> d           5.561  40.795  50.033  0.00  0.00     0.168 HD
ATOM     12  H21 <1> d           1.225  41.988  52.125  0.00  0.00     0.155 HD
ENDROOT
BRANCH  10  13
ATOM     13  C17 <1> d           1.021  43.557  53.430  0.00  0.00     0.034 A 
ATOM     14  C13 <1> d           1.559  44.163  54.568  0.00  0.00     0.025 A 
ATOM     15  C12 <1> d           0.835  44.865  55.501  0.00  0.00     0.030 A 
ATOM     16  C11 <1> d          -0.598  44.953  55.345  0.00  0.00     0.105 A 
ATOM     17  C10 <1> d          -1.161  44.321  54.264  0.00  0.00     0.030 A 
ATOM     18  C18 <1> d          -0.384  43.663  53.332  0.00  0.00     0.025 A 
BRANCH  16  19
ATOM     19  S1  <1> d          -1.601  45.733  56.537  0.00  0.00     0.056 S 
ATOM     20  O2  <1> d          -0.734  46.583  57.340  0.00  0.00    -0.153 OA
ATOM     21  O3  <1> d          -2.432  44.791  57.278  0.00  0.00    -0.153 OA
BRANCH  19  22
ATOM     22  N1  <1> d          -2.615  46.687  55.782  0.00  0.00    -0.203 NA
ATOM     23  H18 <1> d          -3.550  46.466  56.059  0.00  0.00     0.144 HD
ATOM     24  H19 <1> d          -2.521  46.560  54.794  0.00  0.00     0.144 HD
ENDBRANCH  19  22
ENDBRANCH  16  19
ENDBRANCH  10  13
BRANCH   4  25
ATOM     25  O1  <1> d           5.041  45.990  51.691  0.00  0.00    -0.474 OA
BRANCH  25  26
ATOM     26  C3  <1> d           5.435  46.191  53.108  0.00  0.00     0.234 C 
BRANCH  26  27
ATOM     27  C4  <1> d           6.779  46.976  53.123  0.00  0.00     0.027 C 
ATOM     28  C5  <1> d           7.957  46.324  52.347  0.00  0.00     0.007 C 
ATOM     29  C6  <1> d           9.260  47.115  52.300  0.00  0.00     0.000 C 
ATOM     30  C7  <1> d           9.759  47.483  53.783  0.00  0.00     0.000 C 
ATOM     31  C8  <1> d           8.598  48.171  54.494  0.00  0.00     0.000 C 
ATOM     32  C9  <1> d           7.238  47.384  54.537  0.00  0.00     0.007 C 
ENDBRANCH  26  27
ENDBRANCH  25  26
ENDBRANCH   4  25
TORSDOF 6
ENDMDL
MODEL 7
REMARK VINA RESULT:      -7.9      1.884      2.457
REMARK  6 active torsions:
REMARK  status: ('A' for Active; 'I' for Inactive)
REMARK    1  A    between atoms: C3_3  and  C4_4 
REMARK    2  A    between atoms: C3_3  and  O1_17 
REMARK    3  A    between atoms: C11_11  and  S1_26 
REMARK    4  A    between atoms: N1_14  and  S1_26 
REMARK    5  A    between atoms: C14_16  and  O1_17 
REMARK    6  A    between atoms: N6_23  and  C17_24 
ROOT
ATOM      1  C1  <1> d           1.479  43.206  50.772  0.00  0.00     0.225 A 
ATOM      2  C2  <1> d           1.965  46.461  53.757  0.00  0.00     0.199 A 
ATOM      3  N2  <1> d           2.913  43.090  50.914  0.00  0.00    -0.177 NA
ATOM      4  C14 <1> d           3.502  43.892  51.774  0.00  0.00     0.248 A 
ATOM      5  C15 <1> d           2.793  44.907  52.485  0.00  0.00     0.169 A 
ATOM      6  N3  <1> d           3.097  45.865  53.493  0.00  0.00    -0.229 NA
ATOM      7  N4  <1> d           0.952  45.956  53.058  0.00  0.00    -0.329 N 
ATOM      8  C16 <1> d           1.479  45.009  52.326  0.00  0.00     0.167 A 
ATOM      9  N5  <1> d           0.884  44.146  51.392  0.00  0.00    -0.195 NA
ATOM     10  N6  <1> d           0.853  42.460  49.900  0.00  0.00    -0.283 N 
ATOM     11  H20 <1> d          -0.006  46.240  53.086  0.00  0.00     0.168 HD
ATOM     12  H21 <1> d          -0.141  42.382  49.972  0.00  0.00     0.155 HD
ENDROOT
BRANCH  10  13
ATOM     13  C17 <1> d           1.491  41.778  48.888  0.00  0.00     0.034 A 
ATOM     14  C13 <1> d           2.142  40.543  48.941  0.00  0.00     0.025 A 
ATOM     15  C12 <1> d           2.773  39.940  47.880  0.00  0.00     0.030 A 
ATOM     16  C11 <1> d           2.829  40.639  46.618  0.00  0.00     0.105 A 
ATOM     17  C10 <1> d           2.243  41.879  46.551  0.00  0.00     0.030 A 
ATOM     18  C18 <1> d           1.585  42.422  47.635  0.00  0.00     0.025 A 
BRANCH  16  19
ATOM     19  S1  <1> d           3.699  39.994  45.253  0.00  0.00     0.056 S 
ATOM     20  O2  <1> d           5.037  40.564  45.287  0.00  0.00    -0.153 OA
ATOM     21  O3  <1> d           2.972  40.149  43.998  0.00  0.00    -0.153 OA
BRANCH  19  22
ATOM     22  N1  <1> d           3.855  38.431  45.460  0.00  0.00    -0.203 NA
ATOM     23  H18 <1> d           2.985  38.047  45.769  0.00  0.00     0.144 HD
ATOM     24  H19 <1> d           4.561  38.254  46.145  0.00  0.00     0.144 HD
ENDBRANCH  19  22
ENDBRANCH  16  19
ENDBRANCH  10  13
BRANCH   4  25
ATOM     25  O1  <1> d           4.795  43.812  52.060  0.00  0.00    -0.474 OA
BRANCH  25  26
ATOM     26  C3  <1> d           5.463  44.658  51.040  0.00  0.00     0.234 C 
BRANCH  26  27
ATOM     27  C4  <1> d           6.617  45.430  51.742  0.00  0.00     0.027 C 
ATOM     28  C5  <1> d           6.221  46.764  52.436  0.00  0.00     0.007 C 
ATOM     29  C6  <1> d           7.329  47.496  53.184  0.00  0.00     0.000 C 
ATOM     30  C7  <1> d           8.586  47.770  52.218  0.00  0.00     0.000 C 
ATOM     31  C8  <1> d           8.981  46.433  51.600  0.00  0.00     0.000 C 
ATOM     32  C9  <1> d           7.850  45.649  50.842  0.00  0.00     0.007 C 
ENDBRANCH  26  27
ENDBRANCH  25  26
ENDBRANCH   4  25
TORSDOF 6
ENDMDL
MODEL 8
REMARK VINA RESULT:      -7.8      3.315      8.397
REMARK  6 active torsions:
REMARK  status: ('A' for Active; 'I' for Inactive)
REMARK    1  A    between atoms: C3_3  and  C4_4 
REMARK    2  A    between atoms: C3_3  and  O1_17 
REMARK    3  A    between atoms: C11_11  and  S1_26 
REMARK    4  A    between atoms: N1_14  and  S1_26 
REMARK    5  A    between atoms: C14_16  and  O1_17 
REMARK    6  A    between atoms: N6_23  and  C17_24 
ROOT
ATOM      1  C1  <1> d           5.082  42.320  49.352  0.00  0.00     0.225 A 
ATOM      2  C2  <1> d           4.254  40.587  45.346  0.00  0.00     0.199 A 
ATOM      3  N2  <1> d           3.656  42.557  49.359  0.00  0.00    -0.177 NA
ATOM      4  C14 <1> d           2.971  42.146  48.315  0.00  0.00     0.248 A 
ATOM      5  C15 <1> d           3.594  41.568  47.168  0.00  0.00     0.169 A 
ATOM      6  N3  <1> d           3.163  40.983  45.943  0.00  0.00    -0.229 NA
ATOM      7  N4  <1> d           5.342  40.813  46.077  0.00  0.00    -0.329 N 
ATOM      8  C16 <1> d           4.907  41.378  47.174  0.00  0.00     0.167 A 
ATOM      9  N5  <1> d           5.610  41.838  48.298  0.00  0.00    -0.195 NA
ATOM     10  N6  <1> d           5.814  42.748  50.347  0.00  0.00    -0.283 N 
ATOM     11  H20 <1> d           6.289  40.597  45.840  0.00  0.00     0.168 HD
ATOM     12  H21 <1> d           6.740  42.384  50.445  0.00  0.00     0.155 HD
ENDROOT
BRANCH  10  13
ATOM     13  C17 <1> d           5.375  43.673  51.269  0.00  0.00     0.034 A 
ATOM     14  C13 <1> d           4.402  43.526  52.260  0.00  0.00     0.025 A 
ATOM     15  C12 <1> d           4.010  44.515  53.131  0.00  0.00     0.030 A 
ATOM     16  C11 <1> d           4.595  45.828  52.996  0.00  0.00     0.105 A 
ATOM     17  C10 <1> d           5.516  46.016  51.996  0.00  0.00     0.030 A 
ATOM     18  C18 <1> d           5.906  44.978  51.174  0.00  0.00     0.025 A 
BRANCH  16  19
ATOM     19  S1  <1> d           4.079  47.164  53.989  0.00  0.00     0.056 S 
ATOM     20  O2  <1> d           5.217  48.058  54.134  0.00  0.00    -0.153 OA
ATOM     21  O3  <1> d           3.446  46.732  55.230  0.00  0.00    -0.153 OA
BRANCH  19  22
ATOM     22  N1  <1> d           2.960  47.962  53.201  0.00  0.00    -0.203 NA
ATOM     23  H18 <1> d           2.460  47.335  52.604  0.00  0.00     0.144 HD
ATOM     24  H19 <1> d           3.387  48.679  52.650  0.00  0.00     0.144 HD
ENDBRANCH  19  22
ENDBRANCH  16  19
ENDBRANCH  10  13
BRANCH   4  25
ATOM     25  O1  <1> d           1.648  42.220  48.252  0.00  0.00    -0.474 OA
BRANCH  25  26
ATOM     26  C3  <1> d           1.166  41.370  49.369  0.00  0.00     0.234 C 
BRANCH  26  27
ATOM     27  C4  <1> d           0.147  42.204  50.199  0.00  0.00     0.027 C 
ATOM     28  C5  <1> d           0.754  43.123  51.297  0.00  0.00     0.007 C 
ATOM     29  C6  <1> d          -0.228  43.994  52.072  0.00  0.00     0.000 C 
ATOM     30  C7  <1> d          -1.388  43.098  52.732  0.00  0.00     0.000 C 
ATOM     31  C8  <1> d          -1.997  42.253  51.618  0.00  0.00     0.000 C 
ATOM     32  C9  <1> d          -1.002  41.363  50.790  0.00  0.00     0.007 C 
ENDBRANCH  26  27
ENDBRANCH  25  26
ENDBRANCH   4  25
TORSDOF 6
ENDMDL
MODEL 9
REMARK VINA RESULT:      -7.7      3.921      8.130
REMARK  6 active torsions:
REMARK  status: ('A' for Active; 'I' for Inactive)
REMARK    1  A    between atoms: C3_3  and  C4_4 
REMARK    2  A    between atoms: C3_3  and  O1_17 
REMARK    3  A    between atoms: C11_11  and  S1_26 
REMARK    4  A    between atoms: N1_14  and  S1_26 
REMARK    5  A    between atoms: C14_16  and  O1_17 
REMARK    6  A    between atoms: N6_23  and  C17_24 
ROOT
ATOM      1  C1  <1> d           4.820  45.161  52.336  0.00  0.00     0.225 A 
ATOM      2  C2  <1> d           7.866  43.944  49.339  0.00  0.00     0.199 A 
ATOM      3  N2  <1> d           4.308  43.828  52.109  0.00  0.00    -0.177 NA
ATOM      4  C14 <1> d           4.967  43.063  51.267  0.00  0.00     0.248 A 
ATOM      5  C15 <1> d           6.093  43.533  50.524  0.00  0.00     0.169 A 
ATOM      6  N3  <1> d           7.034  42.976  49.614  0.00  0.00    -0.229 NA
ATOM      7  N4  <1> d           7.587  45.057  50.012  0.00  0.00    -0.329 N 
ATOM      8  C16 <1> d           6.534  44.767  50.733  0.00  0.00     0.167 A 
ATOM      9  N5  <1> d           5.801  45.560  51.630  0.00  0.00    -0.195 NA
ATOM     10  N6  <1> d           4.177  45.974  53.132  0.00  0.00    -0.283 N 
ATOM     11  H20 <1> d           8.076  45.928  49.976  0.00  0.00     0.168 HD
ATOM     12  H21 <1> d           4.651  46.792  53.458  0.00  0.00     0.155 HD
ENDROOT
BRANCH  10  13
ATOM     13  C17 <1> d           2.879  45.763  53.545  0.00  0.00     0.034 A 
ATOM     14  C13 <1> d           1.691  46.017  52.857  0.00  0.00     0.025 A 
ATOM     15  C12 <1> d           0.430  45.793  53.356  0.00  0.00     0.030 A 
ATOM     16  C11 <1> d           0.296  45.310  54.710  0.00  0.00     0.105 A 
ATOM     17  C10 <1> d           1.446  45.102  55.429  0.00  0.00     0.030 A 
ATOM     18  C18 <1> d           2.691  45.303  54.866  0.00  0.00     0.025 A 
BRANCH  16  19
ATOM     19  S1  <1> d          -1.265  45.100  55.455  0.00  0.00     0.056 S 
ATOM     20  O2  <1> d          -1.179  45.650  56.800  0.00  0.00    -0.153 OA
ATOM     21  O3  <1> d          -1.756  43.730  55.358  0.00  0.00    -0.153 OA
BRANCH  19  22
ATOM     22  N1  <1> d          -2.315  45.981  54.661  0.00  0.00    -0.203 NA
ATOM     23  H18 <1> d          -3.241  45.667  54.871  0.00  0.00     0.144 HD
ATOM     24  H19 <1> d          -2.149  45.894  53.678  0.00  0.00     0.144 HD
ENDBRANCH  19  22
ENDBRANCH  16  19
ENDBRANCH  10  13
BRANCH   4  25
ATOM     25  O1  <1> d           4.650  41.793  51.053  0.00  0.00    -0.474 OA
BRANCH  25  26
ATOM     26  C3  <1> d           3.425  41.843  50.216  0.00  0.00     0.234 C 
BRANCH  26  27
ATOM     27  C4  <1> d           3.677  40.974  48.950  0.00  0.00     0.027 C 
ATOM     28  C5  <1> d           3.958  41.753  47.634  0.00  0.00     0.007 C 
ATOM     29  C6  <1> d           4.271  40.914  46.401  0.00  0.00     0.000 C 
ATOM     30  C7  <1> d           3.104  39.842  46.128  0.00  0.00     0.000 C 
ATOM     31  C8  <1> d           2.896  39.060  47.420  0.00  0.00     0.000 C 
ATOM     32  C9  <1> d           2.593  39.905  48.709  0.00  0.00     0.007 C 
ENDBRANCH  26  27
ENDBRANCH  25  26
ENDBRANCH   4  25
TORSDOF 6
ENDMDL
MODEL 10
REMARK VINA RESULT:      -7.6      4.320      8.420
REMARK  6 active torsions:
REMARK  status: ('A' for Active; 'I' for Inactive)
REMARK    1  A    between atoms: C3_3  and  C4_4 
REMARK    2  A    between atoms: C3_3  and  O1_17 
REMARK    3  A    between atoms: C11_11  and  S1_26 
REMARK    4  A    between atoms: N1_14  and  S1_26 
REMARK    5  A    between atoms: C14_16  and  O1_17 
REMARK    6  A    between atoms: N6_23  and  C17_24 
ROOT
ATOM      1  C1  <1> d           3.256  43.548  51.917  0.00  0.00     0.225 A 
ATOM      2  C2  <1> d          -0.572  42.061  50.222  0.00  0.00     0.199 A 
ATOM      3  N2  <1> d           2.433  44.645  52.375  0.00  0.00    -0.177 NA
ATOM      4  C14 <1> d           1.148  44.591  52.103  0.00  0.00     0.248 A 
ATOM      5  C15 <1> d           0.576  43.549  51.312  0.00  0.00     0.169 A 
ATOM      6  N3  <1> d          -0.732  43.169  50.895  0.00  0.00    -0.229 NA
ATOM      7  N4  <1> d           0.696  41.662  50.199  0.00  0.00    -0.329 N 
ATOM      8  C16 <1> d           1.352  42.563  50.884  0.00  0.00     0.167 A 
ATOM      9  N5  <1> d           2.721  42.657  51.182  0.00  0.00    -0.195 NA
ATOM     10  N6  <1> d           4.546  43.576  52.126  0.00  0.00    -0.283 N 
ATOM     11  H20 <1> d           1.069  40.847  49.754  0.00  0.00     0.168 HD
ATOM     12  H21 <1> d           5.062  42.727  52.016  0.00  0.00     0.155 HD
ENDROOT
BRANCH  10  13
ATOM     13  C17 <1> d           5.232  44.715  52.490  0.00  0.00     0.034 A 
ATOM     14  C13 <1> d           5.873  45.648  51.672  0.00  0.00     0.025 A 
ATOM     15  C12 <1> d           6.555  46.752  52.123  0.00  0.00     0.030 A 
ATOM     16  C11 <1> d           6.678  46.958  53.547  0.00  0.00     0.105 A 
ATOM     17  C10 <1> d           6.102  46.028  54.376  0.00  0.00     0.030 A 
ATOM     18  C18 <1> d           5.392  44.957  53.871  0.00  0.00     0.025 A 
BRANCH  16  19
ATOM     19  S1  <1> d           7.613  48.273  54.204  0.00  0.00     0.056 S 
ATOM     20  O2  <1> d           6.807  48.899  55.241  0.00  0.00    -0.153 OA
ATOM     21  O3  <1> d           8.129  49.166  53.173  0.00  0.00    -0.153 OA
BRANCH  19  22
ATOM     22  N1  <1> d           8.892  47.665  54.913  0.00  0.00    -0.203 NA
ATOM     23  H18 <1> d           8.974  48.043  55.835  0.00  0.00     0.144 HD
ATOM     24  H19 <1> d           9.709  47.895  54.384  0.00  0.00     0.144 HD
ENDBRANCH  19  22
ENDBRANCH  16  19
ENDBRANCH  10  13
BRANCH   4  25
ATOM     25  O1  <1> d           0.281  45.488  52.555  0.00  0.00    -0.474 OA
BRANCH  25  26
ATOM     26  C3  <1> d           0.513  45.534  54.020  0.00  0.00     0.234 C 
BRANCH  26  27
ATOM     27  C4  <1> d          -0.629  44.731  54.710  0.00  0.00     0.027 C 
ATOM     28  C5  <1> d          -1.993  44.711  53.965  0.00  0.00     0.007 C 
ATOM     29  C6  <1> d          -3.100  43.874  54.597  0.00  0.00     0.000 C 
ATOM     30  C7  <1> d          -3.349  44.316  56.123  0.00  0.00     0.000 C 
ATOM     31  C8  <1> d          -2.001  44.268  56.835  0.00  0.00     0.000 C 
ATOM     32  C9  <1> d          -0.839  45.106  56.190  0.00  0.00     0.007 C 
ENDBRANCH  26  27
ENDBRANCH  25  26
ENDBRANCH   4  25
TORSDOF 6
ENDMDL
