MODEL 1
REMARK VINA RESULT:      -9.4      0.000      0.000
REMARK  3 active torsions:
REMARK  status: ('A' for Active; 'I' for Inactive)
REMARK    1  A    between atoms: C1_1  and  C2_2 
REMARK       I    between atoms: C2_2  and  N1_3 
REMARK    2  A    between atoms: N1_3  and  C3_4 
REMARK    3  A    between atoms: N1_3  and  C9_10 
ROOT
ATOM      1  C2   11 d         -13.079 208.327 114.382  0.00  0.00     0.269 C 
ATOM      2  N1   11 d         -13.705 207.045 114.255  0.00  0.00    -0.278 N 
ATOM      3  O1   11 d         -13.822 209.372 114.422  0.00  0.00    -0.266 OA
ENDROOT
BRANCH   1   4
ATOM      4  C1   11 d         -11.592 208.460 114.446  0.00  0.00     0.109 A 
ATOM      5  C15  11 d         -10.894 208.658 115.663  0.00  0.00     0.304 A 
ATOM      6  O2   11 d         -11.507 208.707 116.758  0.00  0.00    -0.259 OA
ATOM      7  O3   11 d          -9.576 208.769 115.666  0.00  0.00    -0.274 OA
ATOM      8  C16  11 d          -8.829 208.711 114.578  0.00  0.00     0.089 A 
ATOM      9  C17  11 d          -9.433 208.518 113.314  0.00  0.00    -0.001 A 
ATOM     10  C22  11 d          -7.436 208.840 114.676  0.00  0.00     0.038 A 
ATOM     11  C18  11 d         -10.829 208.397 113.262  0.00  0.00     0.037 A 
ATOM     12  C19  11 d          -8.633 208.456 112.157  0.00  0.00     0.014 A 
ATOM     13  C20  11 d          -7.239 208.585 112.265  0.00  0.00     0.001 A 
ATOM     14  C21  11 d          -6.641 208.777 113.519  0.00  0.00     0.003 A 
ENDBRANCH   1   4
BRANCH   2  15
ATOM     15  C3   11 d         -14.495 206.812 113.037  0.00  0.00     0.043 A 
ATOM     16  C4   11 d         -15.889 206.620 113.102  0.00  0.00     0.030 A 
ATOM     17  C5   11 d         -16.633 206.411 111.931  0.00  0.00     0.002 A 
ATOM     18  C6   11 d         -15.990 206.396 110.683  0.00  0.00     0.000 A 
ATOM     19  C7   11 d         -14.603 206.589 110.608  0.00  0.00     0.002 A 
ATOM     20  C8   11 d         -13.859 206.798 111.779  0.00  0.00     0.030 A 
ENDBRANCH   2  15
BRANCH   2  21
ATOM     21  C9   11 d         -13.570 205.985 115.295  0.00  0.00     0.043 A 
ATOM     22  C10  11 d         -14.711 205.338 115.831  0.00  0.00     0.030 A 
ATOM     23  C11  11 d         -14.587 204.347 116.817  0.00  0.00     0.002 A 
ATOM     24  C12  11 d         -13.322 203.970 117.279  0.00  0.00     0.000 A 
ATOM     25  C13  11 d         -12.178 204.577 116.747  0.00  0.00     0.002 A 
ATOM     26  C14  11 d         -12.300 205.567 115.761  0.00  0.00     0.030 A 
ENDBRANCH   2  21
TORSDOF 3
ENDMDL
MODEL 2
REMARK VINA RESULT:      -8.8      1.482      6.116
REMARK  3 active torsions:
REMARK  status: ('A' for Active; 'I' for Inactive)
REMARK    1  A    between atoms: C1_1  and  C2_2 
REMARK       I    between atoms: C2_2  and  N1_3 
REMARK    2  A    between atoms: N1_3  and  C3_4 
REMARK    3  A    between atoms: N1_3  and  C9_10 
ROOT
ATOM      1  C2   11 d         -13.116 207.978 114.891  0.00  0.00     0.269 C 
ATOM      2  N1   11 d         -12.821 207.565 113.552  0.00  0.00    -0.278 N 
ATOM      3  O1   11 d         -13.070 209.229 115.173  0.00  0.00    -0.266 OA
ENDROOT
BRANCH   1   4
ATOM      4  C1   11 d         -13.451 206.982 115.954  0.00  0.00     0.109 A 
ATOM      5  C15  11 d         -12.892 207.034 117.254  0.00  0.00     0.304 A 
ATOM      6  O2   11 d         -12.095 207.949 117.578  0.00  0.00    -0.259 OA
ATOM      7  O3   11 d         -13.222 206.129 118.160  0.00  0.00    -0.274 OA
ATOM      8  C16  11 d         -14.064 205.136 117.937  0.00  0.00     0.089 A 
ATOM      9  C17  11 d         -14.674 204.997 116.668  0.00  0.00    -0.001 A 
ATOM     10  C22  11 d         -14.355 204.219 118.958  0.00  0.00     0.038 A 
ATOM     11  C18  11 d         -14.353 205.934 115.676  0.00  0.00     0.037 A 
ATOM     12  C19  11 d         -15.573 203.938 116.435  0.00  0.00     0.014 A 
ATOM     13  C20  11 d         -15.859 203.026 117.463  0.00  0.00     0.001 A 
ATOM     14  C21  11 d         -15.253 203.165 118.721  0.00  0.00     0.003 A 
ENDBRANCH   1   4
BRANCH   2  15
ATOM     15  C3   11 d         -11.472 207.864 113.050  0.00  0.00     0.043 A 
ATOM     16  C4   11 d         -11.204 207.898 111.667  0.00  0.00     0.030 A 
ATOM     17  C5   11 d          -9.914 208.197 111.201  0.00  0.00     0.002 A 
ATOM     18  C6   11 d          -8.883 208.468 112.113  0.00  0.00     0.000 A 
ATOM     19  C7   11 d          -9.140 208.439 113.491  0.00  0.00     0.002 A 
ATOM     20  C8   11 d         -10.430 208.141 113.958  0.00  0.00     0.030 A 
ENDBRANCH   2  15
BRANCH   2  21
ATOM     21  C9   11 d         -13.819 206.861 112.697  0.00  0.00     0.043 A 
ATOM     22  C10  11 d         -14.955 207.540 112.191  0.00  0.00     0.030 A 
ATOM     23  C11  11 d         -15.901 206.879 111.394  0.00  0.00     0.002 A 
ATOM     24  C12  11 d         -15.727 205.528 111.071  0.00  0.00     0.000 A 
ATOM     25  C13  11 d         -14.601 204.842 111.539  0.00  0.00     0.002 A 
ATOM     26  C14  11 d         -13.653 205.502 112.335  0.00  0.00     0.030 A 
ENDBRANCH   2  21
TORSDOF 3
ENDMDL
MODEL 3
REMARK VINA RESULT:      -8.5      3.719      8.510
REMARK  3 active torsions:
REMARK  status: ('A' for Active; 'I' for Inactive)
REMARK    1  A    between atoms: C1_1  and  C2_2 
REMARK       I    between atoms: C2_2  and  N1_3 
REMARK    2  A    between atoms: N1_3  and  C3_4 
REMARK    3  A    between atoms: N1_3  and  C9_10 
ROOT
ATOM      1  C2   11 d          -6.626 210.026 115.279  0.00  0.00     0.269 C 
ATOM      2  N1   11 d          -5.817 209.280 116.197  0.00  0.00    -0.278 N 
ATOM      3  O1   11 d          -6.418 211.286 115.160  0.00  0.00    -0.266 OA
ENDROOT
BRANCH   1   4
ATOM      4  C1   11 d          -7.709 209.366 114.487  0.00  0.00     0.109 A 
ATOM      5  C15  11 d          -7.519 208.925 113.155  0.00  0.00     0.304 A 
ATOM      6  O2   11 d          -6.409 209.053 112.583  0.00  0.00    -0.259 OA
ATOM      7  O3   11 d          -8.510 208.345 112.497  0.00  0.00    -0.274 OA
ATOM      8  C16  11 d          -9.711 208.139 113.005  0.00  0.00     0.089 A 
ATOM      9  C17  11 d          -9.999 208.546 114.328  0.00  0.00    -0.001 A 
ATOM     10  C22  11 d         -10.703 207.517 112.232  0.00  0.00     0.038 A 
ATOM     11  C18  11 d          -8.980 209.167 115.064  0.00  0.00     0.037 A 
ATOM     12  C19  11 d         -11.282 208.324 114.867  0.00  0.00     0.014 A 
ATOM     13  C20  11 d         -12.267 207.699 114.087  0.00  0.00     0.001 A 
ATOM     14  C21  11 d         -11.980 207.296 112.773  0.00  0.00     0.003 A 
ENDBRANCH   1   4
BRANCH   2  15
ATOM     15  C3   11 d          -5.901 209.662 117.614  0.00  0.00     0.043 A 
ATOM     16  C4   11 d          -5.053 210.652 118.150  0.00  0.00     0.030 A 
ATOM     17  C5   11 d          -5.152 211.016 119.502  0.00  0.00     0.002 A 
ATOM     18  C6   11 d          -6.101 210.396 120.329  0.00  0.00     0.000 A 
ATOM     19  C7   11 d          -6.951 209.411 119.804  0.00  0.00     0.002 A 
ATOM     20  C8   11 d          -6.853 209.048 118.452  0.00  0.00     0.030 A 
ENDBRANCH   2  15
BRANCH   2  21
ATOM     21  C9   11 d          -4.931 208.167 115.754  0.00  0.00     0.043 A 
ATOM     22  C10  11 d          -4.044 208.329 114.660  0.00  0.00     0.030 A 
ATOM     23  C11  11 d          -3.216 207.280 114.235  0.00  0.00     0.002 A 
ATOM     24  C12  11 d          -3.242 206.049 114.901  0.00  0.00     0.000 A 
ATOM     25  C13  11 d          -4.091 205.872 115.999  0.00  0.00     0.002 A 
ATOM     26  C14  11 d          -4.919 206.920 116.426  0.00  0.00     0.030 A 
ENDBRANCH   2  21
TORSDOF 3
ENDMDL
MODEL 4
REMARK VINA RESULT:      -8.5      1.826      2.929
REMARK  3 active torsions:
REMARK  status: ('A' for Active; 'I' for Inactive)
REMARK    1  A    between atoms: C1_1  and  C2_2 
REMARK       I    between atoms: C2_2  and  N1_3 
REMARK    2  A    between atoms: N1_3  and  C3_4 
REMARK    3  A    between atoms: N1_3  and  C9_10 
ROOT
ATOM      1  C2   11 d         -13.290 208.094 115.169  0.00  0.00     0.269 C 
ATOM      2  N1   11 d         -13.977 206.838 115.143  0.00  0.00    -0.278 N 
ATOM      3  O1   11 d         -13.931 209.153 114.834  0.00  0.00    -0.266 OA
ENDROOT
BRANCH   1   4
ATOM      4  C1   11 d         -11.848 208.181 115.556  0.00  0.00     0.109 A 
ATOM      5  C15  11 d         -10.805 208.264 114.603  0.00  0.00     0.304 A 
ATOM      6  O2   11 d         -11.055 208.291 113.373  0.00  0.00    -0.259 OA
ATOM      7  O3   11 d          -9.545 208.340 114.997  0.00  0.00    -0.274 OA
ATOM      8  C16  11 d          -9.167 208.341 116.263  0.00  0.00     0.089 A 
ATOM      9  C17  11 d         -10.136 208.260 117.290  0.00  0.00    -0.001 A 
ATOM     10  C22  11 d          -7.805 208.424 116.590  0.00  0.00     0.038 A 
ATOM     11  C18  11 d         -11.485 208.176 116.919  0.00  0.00     0.037 A 
ATOM     12  C19  11 d          -9.730 208.263 118.639  0.00  0.00     0.014 A 
ATOM     13  C20  11 d          -8.365 208.347 118.956  0.00  0.00     0.001 A 
ATOM     14  C21  11 d          -7.405 208.427 117.936  0.00  0.00     0.003 A 
ENDBRANCH   1   4
BRANCH   2  15
ATOM     15  C3   11 d         -14.491 206.392 113.839  0.00  0.00     0.043 A 
ATOM     16  C4   11 d         -13.624 205.880 112.854  0.00  0.00     0.030 A 
ATOM     17  C5   11 d         -14.130 205.448 111.618  0.00  0.00     0.002 A 
ATOM     18  C6   11 d         -15.507 205.520 111.358  0.00  0.00     0.000 A 
ATOM     19  C7   11 d         -16.378 206.026 112.334  0.00  0.00     0.002 A 
ATOM     20  C8   11 d         -15.873 206.458 113.569  0.00  0.00     0.030 A 
ENDBRANCH   2  15
BRANCH   2  21
ATOM     21  C9   11 d         -14.169 206.008 116.366  0.00  0.00     0.043 A 
ATOM     22  C10  11 d         -14.041 206.574 117.660  0.00  0.00     0.030 A 
ATOM     23  C11  11 d         -14.211 205.794 118.813  0.00  0.00     0.002 A 
ATOM     24  C12  11 d         -14.527 204.435 118.703  0.00  0.00     0.000 A 
ATOM     25  C13  11 d         -14.682 203.859 117.437  0.00  0.00     0.002 A 
ATOM     26  C14  11 d         -14.513 204.637 116.283  0.00  0.00     0.030 A 
ENDBRANCH   2  21
TORSDOF 3
ENDMDL
MODEL 5
REMARK VINA RESULT:      -8.3      2.461      4.874
REMARK  3 active torsions:
REMARK  status: ('A' for Active; 'I' for Inactive)
REMARK    1  A    between atoms: C1_1  and  C2_2 
REMARK       I    between atoms: C2_2  and  N1_3 
REMARK    2  A    between atoms: N1_3  and  C3_4 
REMARK    3  A    between atoms: N1_3  and  C9_10 
ROOT
ATOM      1  C2   11 d         -13.738 207.142 116.284  0.00  0.00     0.269 C 
ATOM      2  N1   11 d         -13.172 206.457 117.408  0.00  0.00    -0.278 N 
ATOM      3  O1   11 d         -14.867 207.732 116.428  0.00  0.00    -0.266 OA
ENDROOT
BRANCH   1   4
ATOM      4  C1   11 d         -13.046 207.159 114.959  0.00  0.00     0.109 A 
ATOM      5  C15  11 d         -13.504 206.407 113.850  0.00  0.00     0.304 A 
ATOM      6  O2   11 d         -14.539 205.701 113.930  0.00  0.00    -0.259 OA
ATOM      7  O3   11 d         -12.857 206.456 112.697  0.00  0.00    -0.274 OA
ATOM      8  C16  11 d         -11.771 207.180 112.492  0.00  0.00     0.089 A 
ATOM      9  C17  11 d         -11.235 207.964 113.539  0.00  0.00    -0.001 A 
ATOM     10  C22  11 d         -11.148 207.171 111.234  0.00  0.00     0.038 A 
ATOM     11  C18  11 d         -11.887 207.942 114.780  0.00  0.00     0.037 A 
ATOM     12  C19  11 d         -10.078 208.735 113.316  0.00  0.00     0.014 A 
ATOM     13  C20  11 d          -9.462 208.721 112.055  0.00  0.00     0.001 A 
ATOM     14  C21  11 d          -9.995 207.942 111.016  0.00  0.00     0.003 A 
ENDBRANCH   1   4
BRANCH   2  15
ATOM     15  C3   11 d         -13.949 205.336 117.958  0.00  0.00     0.043 A 
ATOM     16  C4   11 d         -14.393 205.349 119.295  0.00  0.00     0.030 A 
ATOM     17  C5   11 d         -15.143 204.278 119.804  0.00  0.00     0.002 A 
ATOM     18  C6   11 d         -15.459 203.187 118.980  0.00  0.00     0.000 A 
ATOM     19  C7   11 d         -15.024 203.166 117.647  0.00  0.00     0.002 A 
ATOM     20  C8   11 d         -14.274 204.237 117.138  0.00  0.00     0.030 A 
ENDBRANCH   2  15
BRANCH   2  21
ATOM     21  C9   11 d         -11.861 206.846 118.001  0.00  0.00     0.043 A 
ATOM     22  C10  11 d         -11.074 205.907 118.713  0.00  0.00     0.030 A 
ATOM     23  C11  11 d          -9.844 206.272 119.281  0.00  0.00     0.002 A 
ATOM     24  C12  11 d          -9.365 207.579 119.138  0.00  0.00     0.000 A 
ATOM     25  C13  11 d         -10.112 208.518 118.418  0.00  0.00     0.002 A 
ATOM     26  C14  11 d         -11.341 208.155 117.850  0.00  0.00     0.030 A 
ENDBRANCH   2  21
TORSDOF 3
ENDMDL
MODEL 6
REMARK VINA RESULT:      -8.3      1.513      2.191
REMARK  3 active torsions:
REMARK  status: ('A' for Active; 'I' for Inactive)
REMARK    1  A    between atoms: C1_1  and  C2_2 
REMARK       I    between atoms: C2_2  and  N1_3 
REMARK    2  A    between atoms: N1_3  and  C3_4 
REMARK    3  A    between atoms: N1_3  and  C9_10 
ROOT
ATOM      1  C2   11 d         -12.913 208.198 113.975  0.00  0.00     0.269 C 
ATOM      2  N1   11 d         -13.565 207.009 114.438  0.00  0.00    -0.278 N 
ATOM      3  O1   11 d         -13.633 209.215 113.669  0.00  0.00    -0.266 OA
ENDROOT
BRANCH   1   4
ATOM      4  C1   11 d         -11.427 208.259 113.825  0.00  0.00     0.109 A 
ATOM      5  C15  11 d         -10.769 207.956 112.609  0.00  0.00     0.304 A 
ATOM      6  O2   11 d         -11.421 207.641 111.583  0.00  0.00    -0.259 OA
ATOM      7  O3   11 d          -9.450 208.026 112.528  0.00  0.00    -0.274 OA
ATOM      8  C16  11 d          -8.667 208.367 113.535  0.00  0.00     0.089 A 
ATOM      9  C17  11 d          -9.230 208.686 114.792  0.00  0.00    -0.001 A 
ATOM     10  C22  11 d          -7.276 208.414 113.358  0.00  0.00     0.038 A 
ATOM     11  C18  11 d         -10.624 208.624 114.926  0.00  0.00     0.037 A 
ATOM     12  C19  11 d          -8.392 209.051 115.863  0.00  0.00     0.014 A 
ATOM     13  C20  11 d          -7.001 209.096 115.677  0.00  0.00     0.001 A 
ATOM     14  C21  11 d          -6.444 208.779 114.429  0.00  0.00     0.003 A 
ENDBRANCH   1   4
BRANCH   2  15
ATOM     15  C3   11 d         -14.497 206.359 113.504  0.00  0.00     0.043 A 
ATOM     16  C4   11 d         -15.887 206.562 113.608  0.00  0.00     0.030 A 
ATOM     17  C5   11 d         -16.764 205.944 112.703  0.00  0.00     0.002 A 
ATOM     18  C6   11 d         -16.258 205.122 111.685  0.00  0.00     0.000 A 
ATOM     19  C7   11 d         -14.876 204.917 111.572  0.00  0.00     0.002 A 
ATOM     20  C8   11 d         -13.998 205.534 112.476  0.00  0.00     0.030 A 
ENDBRANCH   2  15
BRANCH   2  21
ATOM     21  C9   11 d         -13.320 206.444 115.795  0.00  0.00     0.043 A 
ATOM     22  C10  11 d         -12.375 205.407 115.995  0.00  0.00     0.030 A 
ATOM     23  C11  11 d         -12.149 204.867 117.270  0.00  0.00     0.002 A 
ATOM     24  C12  11 d         -12.851 205.358 118.376  0.00  0.00     0.000 A 
ATOM     25  C13  11 d         -13.772 206.398 118.209  0.00  0.00     0.002 A 
ATOM     26  C14  11 d         -13.999 206.941 116.935  0.00  0.00     0.030 A 
ENDBRANCH   2  21
TORSDOF 3
ENDMDL
MODEL 7
REMARK VINA RESULT:      -8.0      2.740      4.413
REMARK  3 active torsions:
REMARK  status: ('A' for Active; 'I' for Inactive)
REMARK    1  A    between atoms: C1_1  and  C2_2 
REMARK       I    between atoms: C2_2  and  N1_3 
REMARK    2  A    between atoms: N1_3  and  C3_4 
REMARK    3  A    between atoms: N1_3  and  C9_10 
ROOT
ATOM      1  C2   11 d          -9.027 209.436 113.380  0.00  0.00     0.269 C 
ATOM      2  N1   11 d         -10.093 208.500 113.586  0.00  0.00    -0.278 N 
ATOM      3  O1   11 d          -9.291 210.550 112.802  0.00  0.00    -0.266 OA
ENDROOT
BRANCH   1   4
ATOM      4  C1   11 d          -7.628 209.123 113.804  0.00  0.00     0.109 A 
ATOM      5  C15  11 d          -6.694 208.493 112.947  0.00  0.00     0.304 A 
ATOM      6  O2   11 d          -7.001 208.187 111.769  0.00  0.00    -0.259 OA
ATOM      7  O3   11 d          -5.466 208.238 113.370  0.00  0.00    -0.274 OA
ATOM      8  C16  11 d          -5.028 208.535 114.580  0.00  0.00     0.089 A 
ATOM      9  C17  11 d          -5.887 209.164 115.510  0.00  0.00    -0.001 A 
ATOM     10  C22  11 d          -3.708 208.226 114.943  0.00  0.00     0.038 A 
ATOM     11  C18  11 d          -7.198 209.452 115.106  0.00  0.00     0.037 A 
ATOM     12  C19  11 d          -5.415 209.480 116.799  0.00  0.00     0.014 A 
ATOM     13  C20  11 d          -4.093 209.169 117.153  0.00  0.00     0.001 A 
ATOM     14  C21  11 d          -3.241 208.544 116.230  0.00  0.00     0.003 A 
ENDBRANCH   1   4
BRANCH   2  15
ATOM     15  C3   11 d         -10.762 207.984 112.383  0.00  0.00     0.043 A 
ATOM     16  C4   11 d         -11.960 207.250 112.478  0.00  0.00     0.030 A 
ATOM     17  C5   11 d         -12.595 206.772 111.321  0.00  0.00     0.002 A 
ATOM     18  C6   11 d         -12.038 207.028 110.058  0.00  0.00     0.000 A 
ATOM     19  C7   11 d         -10.847 207.760 109.953  0.00  0.00     0.002 A 
ATOM     20  C8   11 d         -10.212 208.238 111.110  0.00  0.00     0.030 A 
ENDBRANCH   2  15
BRANCH   2  21
ATOM     21  C9   11 d         -10.513 208.059 114.946  0.00  0.00     0.043 A 
ATOM     22  C10  11 d         -11.054 206.767 115.161  0.00  0.00     0.030 A 
ATOM     23  C11  11 d         -11.460 206.352 116.438  0.00  0.00     0.002 A 
ATOM     24  C12  11 d         -11.321 207.213 117.533  0.00  0.00     0.000 A 
ATOM     25  C13  11 d         -10.768 208.485 117.352  0.00  0.00     0.002 A 
ATOM     26  C14  11 d         -10.361 208.901 116.075  0.00  0.00     0.030 A 
ENDBRANCH   2  21
TORSDOF 3
ENDMDL
MODEL 8
REMARK VINA RESULT:      -7.9      2.732      4.176
REMARK  3 active torsions:
REMARK  status: ('A' for Active; 'I' for Inactive)
REMARK    1  A    between atoms: C1_1  and  C2_2 
REMARK       I    between atoms: C2_2  and  N1_3 
REMARK    2  A    between atoms: N1_3  and  C3_4 
REMARK    3  A    between atoms: N1_3  and  C9_10 
ROOT
ATOM      1  C2   11 d         -10.892 208.669 115.883  0.00  0.00     0.269 C 
ATOM      2  N1   11 d         -11.496 207.708 115.009  0.00  0.00    -0.278 N 
ATOM      3  O1   11 d         -11.098 209.915 115.664  0.00  0.00    -0.266 OA
ENDROOT
BRANCH   1   4
ATOM      4  C1   11 d         -10.019 208.242 117.019  0.00  0.00     0.109 A 
ATOM      5  C15  11 d         -10.521 208.008 118.322  0.00  0.00     0.304 A 
ATOM      6  O2   11 d         -11.745 208.130 118.574  0.00  0.00    -0.259 OA
ATOM      7  O3   11 d          -9.707 207.630 119.294  0.00  0.00    -0.274 OA
ATOM      8  C16  11 d          -8.408 207.450 119.138  0.00  0.00     0.089 A 
ATOM      9  C17  11 d          -7.810 207.660 117.873  0.00  0.00    -0.001 A 
ATOM     10  C22  11 d          -7.619 207.048 120.227  0.00  0.00     0.038 A 
ATOM     11  C18  11 d          -8.635 208.063 116.814  0.00  0.00     0.037 A 
ATOM     12  C19  11 d          -6.425 207.466 117.711  0.00  0.00     0.014 A 
ATOM     13  C20  11 d          -5.644 207.063 118.806  0.00  0.00     0.001 A 
ATOM     14  C21  11 d          -6.238 206.855 120.060  0.00  0.00     0.003 A 
ENDBRANCH   1   4
BRANCH   2  15
ATOM     15  C3   11 d         -11.100 207.761 113.594  0.00  0.00     0.043 A 
ATOM     16  C4   11 d          -9.905 208.394 113.198  0.00  0.00     0.030 A 
ATOM     17  C5   11 d          -9.533 208.427 111.845  0.00  0.00     0.002 A 
ATOM     18  C6   11 d         -10.351 207.824 110.877  0.00  0.00     0.000 A 
ATOM     19  C7   11 d         -11.541 207.189 111.262  0.00  0.00     0.002 A 
ATOM     20  C8   11 d         -11.913 207.156 112.614  0.00  0.00     0.030 A 
ENDBRANCH   2  15
BRANCH   2  21
ATOM     21  C9   11 d         -12.476 206.696 115.493  0.00  0.00     0.043 A 
ATOM     22  C10  11 d         -13.867 206.861 115.273  0.00  0.00     0.030 A 
ATOM     23  C11  11 d         -14.793 205.915 115.736  0.00  0.00     0.002 A 
ATOM     24  C12  11 d         -14.352 204.774 116.417  0.00  0.00     0.000 A 
ATOM     25  C13  11 d         -12.983 204.576 116.625  0.00  0.00     0.002 A 
ATOM     26  C14  11 d         -12.055 205.520 116.162  0.00  0.00     0.030 A 
ENDBRANCH   2  21
TORSDOF 3
ENDMDL
MODEL 9
REMARK VINA RESULT:      -7.8      2.027      6.807
REMARK  3 active torsions:
REMARK  status: ('A' for Active; 'I' for Inactive)
REMARK    1  A    between atoms: C1_1  and  C2_2 
REMARK       I    between atoms: C2_2  and  N1_3 
REMARK    2  A    between atoms: N1_3  and  C3_4 
REMARK    3  A    between atoms: N1_3  and  C9_10 
ROOT
ATOM      1  C2   11 d         -10.657 208.697 115.023  0.00  0.00     0.269 C 
ATOM      2  N1   11 d          -9.860 208.463 113.856  0.00  0.00    -0.278 N 
ATOM      3  O1   11 d         -10.699 209.882 115.511  0.00  0.00    -0.266 OA
ENDROOT
BRANCH   1   4
ATOM      4  C1   11 d         -11.413 207.587 115.680  0.00  0.00     0.109 A 
ATOM      5  C15  11 d         -10.932 206.911 116.828  0.00  0.00     0.304 A 
ATOM      6  O2   11 d          -9.843 207.238 117.361  0.00  0.00    -0.259 OA
ATOM      7  O3   11 d         -11.640 205.936 117.373  0.00  0.00    -0.274 OA
ATOM      8  C16  11 d         -12.806 205.524 116.911  0.00  0.00     0.089 A 
ATOM      9  C17  11 d         -13.370 206.136 115.767  0.00  0.00    -0.001 A 
ATOM     10  C22  11 d         -13.487 204.480 117.554  0.00  0.00     0.038 A 
ATOM     11  C18  11 d         -12.654 207.174 115.154  0.00  0.00     0.037 A 
ATOM     12  C19  11 d         -14.614 205.694 115.278  0.00  0.00     0.014 A 
ATOM     13  C20  11 d         -15.290 204.650 115.928  0.00  0.00     0.001 A 
ATOM     14  C21  11 d         -14.729 204.043 117.063  0.00  0.00     0.003 A 
ENDBRANCH   1   4
BRANCH   2  15
ATOM     15  C3   11 d          -8.416 208.711 113.980  0.00  0.00     0.043 A 
ATOM     16  C4   11 d          -7.529 208.368 112.941  0.00  0.00     0.030 A 
ATOM     17  C5   11 d          -6.154 208.621 113.069  0.00  0.00     0.002 A 
ATOM     18  C6   11 d          -5.656 209.223 114.234  0.00  0.00     0.000 A 
ATOM     19  C7   11 d          -6.532 209.570 115.273  0.00  0.00     0.002 A 
ATOM     20  C8   11 d          -7.906 209.318 115.146  0.00  0.00     0.030 A 
ENDBRANCH   2  15
BRANCH   2  21
ATOM     21  C9   11 d         -10.448 207.988 112.571  0.00  0.00     0.043 A 
ATOM     22  C10  11 d         -10.099 208.594 111.339  0.00  0.00     0.030 A 
ATOM     23  C11  11 d         -10.658 208.156 110.129  0.00  0.00     0.002 A 
ATOM     24  C12  11 d         -11.567 207.092 110.120  0.00  0.00     0.000 A 
ATOM     25  C13  11 d         -11.910 206.461 111.321  0.00  0.00     0.002 A 
ATOM     26  C14  11 d         -11.351 206.897 112.531  0.00  0.00     0.030 A 
ENDBRANCH   2  21
TORSDOF 3
ENDMDL
MODEL 10
REMARK VINA RESULT:      -7.8      2.920      7.167
REMARK  3 active torsions:
REMARK  status: ('A' for Active; 'I' for Inactive)
REMARK    1  A    between atoms: C1_1  and  C2_2 
REMARK       I    between atoms: C2_2  and  N1_3 
REMARK    2  A    between atoms: N1_3  and  C3_4 
REMARK    3  A    between atoms: N1_3  and  C9_10 
ROOT
ATOM      1  C2   11 d          -9.700 208.653 116.077  0.00  0.00     0.269 C 
ATOM      2  N1   11 d          -8.321 208.400 116.373  0.00  0.00    -0.278 N 
ATOM      3  O1   11 d         -10.387 209.354 116.903  0.00  0.00    -0.266 OA
ENDROOT
BRANCH   1   4
ATOM      4  C1   11 d         -10.343 208.100 114.846  0.00  0.00     0.109 A 
ATOM      5  C15  11 d         -11.368 207.125 114.892  0.00  0.00     0.304 A 
ATOM      6  O2   11 d         -11.802 206.695 115.989  0.00  0.00    -0.259 OA
ATOM      7  O3   11 d         -11.906 206.668 113.773  0.00  0.00    -0.274 OA
ATOM      8  C16  11 d         -11.544 207.064 112.567  0.00  0.00     0.089 A 
ATOM      9  C17  11 d         -10.525 208.034 112.416  0.00  0.00    -0.001 A 
ATOM     10  C22  11 d         -12.169 206.523 111.433  0.00  0.00     0.038 A 
ATOM     11  C18  11 d          -9.926 208.546 113.575  0.00  0.00     0.037 A 
ATOM     12  C19  11 d         -10.143 208.454 111.127  0.00  0.00     0.014 A 
ATOM     13  C20  11 d         -10.775 207.908 109.999  0.00  0.00     0.001 A 
ATOM     14  C21  11 d         -11.785 206.946 110.150  0.00  0.00     0.003 A 
ENDBRANCH   1   4
BRANCH   2  15
ATOM     15  C3   11 d          -8.036 207.649 117.605  0.00  0.00     0.043 A 
ATOM     16  C4   11 d          -9.076 207.248 118.466  0.00  0.00     0.030 A 
ATOM     17  C5   11 d          -8.791 206.522 119.633  0.00  0.00     0.002 A 
ATOM     18  C6   11 d          -7.464 206.187 119.946  0.00  0.00     0.000 A 
ATOM     19  C7   11 d          -6.423 206.581 119.093  0.00  0.00     0.002 A 
ATOM     20  C8   11 d          -6.707 207.306 117.926  0.00  0.00     0.030 A 
ENDBRANCH   2  15
BRANCH   2  21
ATOM     21  C9   11 d          -7.218 208.865 115.485  0.00  0.00     0.043 A 
ATOM     22  C10  11 d          -6.652 210.156 115.637  0.00  0.00     0.030 A 
ATOM     23  C11  11 d          -5.620 210.599 114.797  0.00  0.00     0.002 A 
ATOM     24  C12  11 d          -5.118 209.760 113.796  0.00  0.00     0.000 A 
ATOM     25  C13  11 d          -5.643 208.471 113.642  0.00  0.00     0.002 A 
ATOM     26  C14  11 d          -6.674 208.026 114.482  0.00  0.00     0.030 A 
ENDBRANCH   2  21
TORSDOF 3
ENDMDL
