MODEL 1
REMARK VINA RESULT:      -7.7      0.000      0.000
REMARK  3 active torsions:
REMARK  status: ('A' for Active; 'I' for Inactive)
REMARK    1  A    between atoms: C1_1  and  N1_2 
REMARK    2  A    between atoms: N1_2  and  N2_3 
REMARK    3  A    between atoms: N2_3  and  C2_4 
ROOT
ATOM      1  C2   11 d         -13.097 206.933 112.032  0.00  0.00     0.110 C 
ATOM      2  C3   11 d         -13.663 206.493 110.672  0.00  0.00     0.050 C 
ATOM      3  C4   11 d         -14.890 207.355 110.336  0.00  0.00     0.016 C 
ATOM      4  C5   11 d         -15.964 207.186 111.423  0.00  0.00    -0.013 C 
ATOM      5  C6   11 d         -15.389 207.632 112.779  0.00  0.00     0.016 C 
ATOM      6  C7   11 d         -14.157 206.772 113.157  0.00  0.00     0.050 C 
ATOM      7  C8   11 d         -14.573 205.281 113.202  0.00  0.00     0.016 C 
ATOM      8  C9   11 d         -15.151 204.837 111.846  0.00  0.00    -0.013 C 
ATOM      9  C10  11 d         -14.082 205.018 110.755  0.00  0.00     0.016 C 
ATOM     10  C11  11 d         -16.373 205.707 111.507  0.00  0.00     0.009 C 
ENDROOT
BRANCH   1  11
ATOM     11  N2   11 d         -11.859 207.409 112.304  0.00  0.00    -0.255 NA
BRANCH  11  12
ATOM     12  N1   11 d         -10.621 207.886 112.577  0.00  0.00    -0.223 NA
BRANCH  12  13
ATOM     13  C1   11 d          -9.384 208.362 112.849  0.00  0.00     0.260 A 
ATOM     14  S1   11 d          -9.074 209.341 114.211  0.00  0.00    -0.066 SA
ATOM     15  C12  11 d          -7.399 209.429 113.816  0.00  0.00     0.186 A 
ATOM     16  C13  11 d          -7.123 208.640 112.563  0.00  0.00     0.234 A 
ATOM     17  O1   11 d          -6.050 208.472 112.025  0.00  0.00    -0.272 OA
ATOM     18  N3   11 d          -8.318 208.107 112.085  0.00  0.00    -0.293 N 
ATOM     19  H    11 d          -8.379 207.534 111.169  0.00  0.00     0.172 HD
ENDBRANCH  12  13
ENDBRANCH  11  12
ENDBRANCH   1  11
TORSDOF 3
ENDMDL
MODEL 2
REMARK VINA RESULT:      -7.5      0.142      2.062
REMARK  3 active torsions:
REMARK  status: ('A' for Active; 'I' for Inactive)
REMARK    1  A    between atoms: C1_1  and  N1_2 
REMARK    2  A    between atoms: N1_2  and  N2_3 
REMARK    3  A    between atoms: N2_3  and  C2_4 
ROOT
ATOM      1  C2   11 d         -13.160 207.003 112.139  0.00  0.00     0.110 C 
ATOM      2  C3   11 d         -14.267 206.787 113.183  0.00  0.00     0.050 C 
ATOM      3  C4   11 d         -14.676 205.305 113.184  0.00  0.00     0.016 C 
ATOM      4  C5   11 d         -15.190 204.901 111.792  0.00  0.00    -0.013 C 
ATOM      5  C6   11 d         -14.073 205.119 110.756  0.00  0.00     0.016 C 
ATOM      6  C7   11 d         -13.648 206.608 110.718  0.00  0.00     0.050 C 
ATOM      7  C8   11 d         -14.883 207.481 110.383  0.00  0.00     0.016 C 
ATOM      8  C9   11 d         -16.000 207.260 111.420  0.00  0.00    -0.013 C 
ATOM      9  C10  11 d         -15.483 207.650 112.814  0.00  0.00     0.016 C 
ATOM     10  C11  11 d         -16.400 205.775 111.425  0.00  0.00     0.009 C 
ENDROOT
BRANCH   1  11
ATOM     11  N2   11 d         -11.905 207.468 112.341  0.00  0.00    -0.255 NA
BRANCH  11  12
ATOM     12  N1   11 d         -10.649 207.934 112.544  0.00  0.00    -0.223 NA
BRANCH  12  13
ATOM     13  C1   11 d          -9.394 208.399 112.747  0.00  0.00     0.260 A 
ATOM     14  S1   11 d          -9.018 209.439 114.045  0.00  0.00    -0.066 SA
ATOM     15  C12  11 d          -7.357 209.474 113.587  0.00  0.00     0.186 A 
ATOM     16  C13  11 d          -7.142 208.617 112.367  0.00  0.00     0.234 A 
ATOM     17  O1   11 d          -6.092 208.400 111.801  0.00  0.00    -0.272 OA
ATOM     18  N3   11 d          -8.362 208.084 111.960  0.00  0.00    -0.293 N 
ATOM     19  H    11 d          -8.467 207.466 111.077  0.00  0.00     0.172 HD
ENDBRANCH  12  13
ENDBRANCH  11  12
ENDBRANCH   1  11
TORSDOF 3
ENDMDL
MODEL 3
REMARK VINA RESULT:      -7.4      4.975      6.479
REMARK  3 active torsions:
REMARK  status: ('A' for Active; 'I' for Inactive)
REMARK    1  A    between atoms: C1_1  and  N1_2 
REMARK    2  A    between atoms: N1_2  and  N2_3 
REMARK    3  A    between atoms: N2_3  and  C2_4 
ROOT
ATOM      1  C2   11 d         -14.792 205.729 113.231  0.00  0.00     0.110 C 
ATOM      2  C3   11 d         -15.490 205.084 112.023  0.00  0.00     0.050 C 
ATOM      3  C4   11 d         -14.427 204.635 111.008  0.00  0.00     0.016 C 
ATOM      4  C5   11 d         -13.600 205.845 110.544  0.00  0.00    -0.013 C 
ATOM      5  C6   11 d         -12.903 206.481 111.760  0.00  0.00     0.016 C 
ATOM      6  C7   11 d         -13.949 206.960 112.798  0.00  0.00     0.050 C 
ATOM      7  C8   11 d         -14.907 207.974 112.124  0.00  0.00     0.016 C 
ATOM      8  C9   11 d         -15.601 207.336 110.906  0.00  0.00    -0.013 C 
ATOM      9  C10  11 d         -16.417 206.118 111.367  0.00  0.00     0.016 C 
ATOM     10  C11  11 d         -14.534 206.880 109.896  0.00  0.00     0.009 C 
ENDROOT
BRANCH   1  11
ATOM     11  N2   11 d         -14.847 205.343 114.528  0.00  0.00    -0.255 NA
BRANCH  11  12
ATOM     12  N1   11 d         -14.901 204.958 115.825  0.00  0.00    -0.223 NA
BRANCH  12  13
ATOM     13  C1   11 d         -14.954 204.573 117.122  0.00  0.00     0.260 A 
ATOM     14  S1   11 d         -15.608 203.069 117.590  0.00  0.00    -0.066 SA
ATOM     15  C12  11 d         -15.256 203.387 119.247  0.00  0.00     0.186 A 
ATOM     16  C13  11 d         -14.596 204.734 119.383  0.00  0.00     0.234 A 
ATOM     17  O1   11 d         -14.195 205.253 120.403  0.00  0.00    -0.272 OA
ATOM     18  N3   11 d         -14.504 205.329 118.127  0.00  0.00    -0.293 N 
ATOM     19  H    11 d         -14.102 206.323 117.978  0.00  0.00     0.172 HD
ENDBRANCH  12  13
ENDBRANCH  11  12
ENDBRANCH   1  11
TORSDOF 3
ENDMDL
MODEL 4
REMARK VINA RESULT:      -7.3      4.987      6.403
REMARK  3 active torsions:
REMARK  status: ('A' for Active; 'I' for Inactive)
REMARK    1  A    between atoms: C1_1  and  N1_2 
REMARK    2  A    between atoms: N1_2  and  N2_3 
REMARK    3  A    between atoms: N2_3  and  C2_4 
ROOT
ATOM      1  C2   11 d         -14.735 205.826 113.227  0.00  0.00     0.110 C 
ATOM      2  C3   11 d         -13.944 207.025 112.679  0.00  0.00     0.050 C 
ATOM      3  C4   11 d         -14.919 208.005 112.008  0.00  0.00     0.016 C 
ATOM      4  C5   11 d         -15.662 207.304 110.858  0.00  0.00    -0.013 C 
ATOM      5  C6   11 d         -16.451 206.108 111.418  0.00  0.00     0.016 C 
ATOM      6  C7   11 d         -15.496 205.091 112.089  0.00  0.00     0.050 C 
ATOM      7  C8   11 d         -14.448 204.617 111.051  0.00  0.00     0.016 C 
ATOM      8  C9   11 d         -13.660 205.815 110.490  0.00  0.00    -0.013 C 
ATOM      9  C10  11 d         -12.929 206.525 111.640  0.00  0.00     0.016 C 
ATOM     10  C11  11 d         -14.640 206.799 109.827  0.00  0.00     0.009 C 
ENDROOT
BRANCH   1  11
ATOM     11  N2   11 d         -14.815 205.398 114.509  0.00  0.00    -0.255 NA
BRANCH  11  12
ATOM     12  N1   11 d         -14.894 204.970 115.792  0.00  0.00    -0.223 NA
BRANCH  12  13
ATOM     13  C1   11 d         -14.974 204.543 117.074  0.00  0.00     0.260 A 
ATOM     14  S1   11 d         -15.638 203.026 117.479  0.00  0.00    -0.066 SA
ATOM     15  C12  11 d         -15.318 203.289 119.152  0.00  0.00     0.186 A 
ATOM     16  C13  11 d         -14.660 204.630 119.346  0.00  0.00     0.234 A 
ATOM     17  O1   11 d         -14.279 205.114 120.389  0.00  0.00    -0.272 OA
ATOM     18  N3   11 d         -14.543 205.265 118.112  0.00  0.00    -0.293 N 
ATOM     19  H    11 d         -14.137 206.263 118.003  0.00  0.00     0.172 HD
ENDBRANCH  12  13
ENDBRANCH  11  12
ENDBRANCH   1  11
TORSDOF 3
ENDMDL
MODEL 5
REMARK VINA RESULT:      -6.7      2.268      3.214
REMARK  3 active torsions:
REMARK  status: ('A' for Active; 'I' for Inactive)
REMARK    1  A    between atoms: C1_1  and  N1_2 
REMARK    2  A    between atoms: N1_2  and  N2_3 
REMARK    3  A    between atoms: N2_3  and  C2_4 
ROOT
ATOM      1  C2   11 d         -12.218 207.579 114.340  0.00  0.00     0.110 C 
ATOM      2  C3   11 d         -13.528 208.374 114.445  0.00  0.00     0.050 C 
ATOM      3  C4   11 d         -14.262 207.967 115.733  0.00  0.00     0.016 C 
ATOM      4  C5   11 d         -14.570 206.461 115.708  0.00  0.00    -0.013 C 
ATOM      5  C6   11 d         -13.252 205.674 115.605  0.00  0.00     0.016 C 
ATOM      6  C7   11 d         -12.493 206.050 114.308  0.00  0.00     0.050 C 
ATOM      7  C8   11 d         -13.400 205.759 113.086  0.00  0.00     0.016 C 
ATOM      8  C9   11 d         -14.719 206.546 113.192  0.00  0.00    -0.013 C 
ATOM      9  C10  11 d         -14.412 208.051 113.231  0.00  0.00     0.016 C 
ATOM     10  C11  11 d         -15.447 206.143 114.486  0.00  0.00     0.009 C 
ENDROOT
BRANCH   1  11
ATOM     11  N2   11 d         -10.953 208.061 114.279  0.00  0.00    -0.255 NA
BRANCH  11  12
ATOM     12  N1   11 d          -9.689 208.541 114.219  0.00  0.00    -0.223 NA
BRANCH  12  13
ATOM     13  C1   11 d          -8.425 209.022 114.158  0.00  0.00     0.260 A 
ATOM     14  S1   11 d          -7.340 208.553 112.927  0.00  0.00    -0.066 SA
ATOM     15  C12  11 d          -6.115 209.588 113.559  0.00  0.00     0.186 A 
ATOM     16  C13  11 d          -6.628 210.309 114.777  0.00  0.00     0.234 A 
ATOM     17  O1   11 d          -6.036 211.128 115.446  0.00  0.00    -0.272 OA
ATOM     18  N3   11 d          -7.930 209.891 115.043  0.00  0.00    -0.293 N 
ATOM     19  H    11 d          -8.495 210.241 115.898  0.00  0.00     0.172 HD
ENDBRANCH  12  13
ENDBRANCH  11  12
ENDBRANCH   1  11
TORSDOF 3
ENDMDL
MODEL 6
REMARK VINA RESULT:      -6.5      2.428      2.960
REMARK  3 active torsions:
REMARK  status: ('A' for Active; 'I' for Inactive)
REMARK    1  A    between atoms: C1_1  and  N1_2 
REMARK    2  A    between atoms: N1_2  and  N2_3 
REMARK    3  A    between atoms: N2_3  and  C2_4 
ROOT
ATOM      1  C2   11 d         -12.030 207.633 114.368  0.00  0.00     0.110 C 
ATOM      2  C3   11 d         -12.977 207.393 113.182  0.00  0.00     0.050 C 
ATOM      3  C4   11 d         -14.244 208.242 113.371  0.00  0.00     0.016 C 
ATOM      4  C5   11 d         -14.947 207.853 114.682  0.00  0.00    -0.013 C 
ATOM      5  C6   11 d         -13.991 208.100 115.863  0.00  0.00     0.016 C 
ATOM      6  C7   11 d         -12.707 207.247 115.712  0.00  0.00     0.050 C 
ATOM      7  C8   11 d         -13.099 205.750 115.629  0.00  0.00     0.016 C 
ATOM      8  C9   11 d         -14.057 205.505 114.449  0.00  0.00    -0.013 C 
ATOM      9  C10  11 d         -13.361 205.907 113.138  0.00  0.00     0.016 C 
ATOM     10  C11  11 d         -15.320 206.363 114.635  0.00  0.00     0.009 C 
ENDROOT
BRANCH   1  11
ATOM     11  N2   11 d         -10.764 208.113 114.339  0.00  0.00    -0.255 NA
BRANCH  11  12
ATOM     12  N1   11 d          -9.498 208.592 114.308  0.00  0.00    -0.223 NA
BRANCH  12  13
ATOM     13  C1   11 d          -8.232 209.072 114.278  0.00  0.00     0.260 A 
ATOM     14  S1   11 d          -7.172 208.736 112.985  0.00  0.00    -0.066 SA
ATOM     15  C12  11 d          -5.930 209.691 113.704  0.00  0.00     0.186 A 
ATOM     16  C13  11 d          -6.418 210.277 115.003  0.00  0.00     0.234 A 
ATOM     17  O1   11 d          -5.810 211.015 115.747  0.00  0.00    -0.272 OA
ATOM     18  N3   11 d          -7.718 209.837 115.245  0.00  0.00    -0.293 N 
ATOM     19  H    11 d          -8.266 210.094 116.142  0.00  0.00     0.172 HD
ENDBRANCH  12  13
ENDBRANCH  11  12
ENDBRANCH   1  11
TORSDOF 3
ENDMDL
MODEL 7
REMARK VINA RESULT:      -6.5      4.940      6.252
REMARK  3 active torsions:
REMARK  status: ('A' for Active; 'I' for Inactive)
REMARK    1  A    between atoms: C1_1  and  N1_2 
REMARK    2  A    between atoms: N1_2  and  N2_3 
REMARK    3  A    between atoms: N2_3  and  C2_4 
ROOT
ATOM      1  C2   11 d         -14.665 206.097 113.781  0.00  0.00     0.110 C 
ATOM      2  C3   11 d         -15.737 206.960 113.097  0.00  0.00     0.050 C 
ATOM      3  C4   11 d         -16.594 206.067 112.185  0.00  0.00     0.016 C 
ATOM      4  C5   11 d         -15.708 205.400 111.120  0.00  0.00    -0.013 C 
ATOM      5  C6   11 d         -14.641 204.537 111.815  0.00  0.00     0.016 C 
ATOM      6  C7   11 d         -13.748 205.410 112.732  0.00  0.00     0.050 C 
ATOM      7  C8   11 d         -13.084 206.524 111.884  0.00  0.00     0.016 C 
ATOM      8  C9   11 d         -14.153 207.385 111.187  0.00  0.00    -0.013 C 
ATOM      9  C10  11 d         -15.049 208.041 112.251  0.00  0.00     0.016 C 
ATOM     10  C11  11 d         -15.015 206.487 110.283  0.00  0.00     0.009 C 
ENDROOT
BRANCH   1  11
ATOM     11  N2   11 d         -14.473 205.904 115.108  0.00  0.00    -0.255 NA
BRANCH  11  12
ATOM     12  N1   11 d         -14.281 205.713 116.434  0.00  0.00    -0.223 NA
BRANCH  12  13
ATOM     13  C1   11 d         -14.089 205.522 117.760  0.00  0.00     0.260 A 
ATOM     14  S1   11 d         -12.832 206.300 118.611  0.00  0.00    -0.066 SA
ATOM     15  C12  11 d         -13.330 205.573 120.092  0.00  0.00     0.186 A 
ATOM     16  C13  11 d         -14.535 204.701 119.857  0.00  0.00     0.234 A 
ATOM     17  O1   11 d         -15.153 204.067 120.685  0.00  0.00    -0.272 OA
ATOM     18  N3   11 d         -14.858 204.720 118.502  0.00  0.00    -0.293 N 
ATOM     19  H    11 d         -15.666 204.134 118.084  0.00  0.00     0.172 HD
ENDBRANCH  12  13
ENDBRANCH  11  12
ENDBRANCH   1  11
TORSDOF 3
ENDMDL
MODEL 8
REMARK VINA RESULT:      -6.4      6.170      7.582
REMARK  3 active torsions:
REMARK  status: ('A' for Active; 'I' for Inactive)
REMARK    1  A    between atoms: C1_1  and  N1_2 
REMARK    2  A    between atoms: N1_2  and  N2_3 
REMARK    3  A    between atoms: N2_3  and  C2_4 
ROOT
ATOM      1  C2   11 d         -13.208 206.977 115.833  0.00  0.00     0.110 C 
ATOM      2  C3   11 d         -12.925 208.319 115.141  0.00  0.00     0.050 C 
ATOM      3  C4   11 d         -13.809 208.436 113.889  0.00  0.00     0.016 C 
ATOM      4  C5   11 d         -13.505 207.279 112.922  0.00  0.00    -0.013 C 
ATOM      5  C6   11 d         -13.795 205.941 113.624  0.00  0.00     0.016 C 
ATOM      6  C7   11 d         -12.908 205.784 114.884  0.00  0.00     0.050 C 
ATOM      7  C8   11 d         -11.417 205.874 114.471  0.00  0.00     0.016 C 
ATOM      8  C9   11 d         -11.130 207.212 113.767  0.00  0.00    -0.013 C 
ATOM      9  C10  11 d         -11.446 208.370 114.728  0.00  0.00     0.016 C 
ATOM     10  C11  11 d         -12.022 207.330 112.520  0.00  0.00     0.009 C 
ENDROOT
BRANCH   1  11
ATOM     11  N2   11 d         -13.660 206.768 117.093  0.00  0.00    -0.255 NA
BRANCH  11  12
ATOM     12  N1   11 d         -14.112 206.561 118.353  0.00  0.00    -0.223 NA
BRANCH  12  13
ATOM     13  C1   11 d         -14.564 206.354 119.612  0.00  0.00     0.260 A 
ATOM     14  S1   11 d         -13.660 205.476 120.761  0.00  0.00    -0.066 SA
ATOM     15  C12  11 d         -14.867 205.732 121.964  0.00  0.00     0.186 A 
ATOM     16  C13  11 d         -15.997 206.547 121.394  0.00  0.00     0.234 A 
ATOM     17  O1   11 d         -16.991 206.928 121.974  0.00  0.00    -0.272 OA
ATOM     18  N3   11 d         -15.737 206.816 120.052  0.00  0.00    -0.293 N 
ATOM     19  H    11 d         -16.430 207.354 119.417  0.00  0.00     0.172 HD
ENDBRANCH  12  13
ENDBRANCH  11  12
ENDBRANCH   1  11
TORSDOF 3
ENDMDL
MODEL 9
REMARK VINA RESULT:      -6.4      3.429      4.033
REMARK  3 active torsions:
REMARK  status: ('A' for Active; 'I' for Inactive)
REMARK    1  A    between atoms: C1_1  and  N1_2 
REMARK    2  A    between atoms: N1_2  and  N2_3 
REMARK    3  A    between atoms: N2_3  and  C2_4 
ROOT
ATOM      1  C2   11 d         -13.742 206.372 113.499  0.00  0.00     0.110 C 
ATOM      2  C3   11 d         -14.856 205.346 113.238  0.00  0.00     0.050 C 
ATOM      3  C4   11 d         -14.520 204.552 111.965  0.00  0.00     0.016 C 
ATOM      4  C5   11 d         -14.402 205.507 110.766  0.00  0.00    -0.013 C 
ATOM      5  C6   11 d         -13.283 206.528 111.037  0.00  0.00     0.016 C 
ATOM      6  C7   11 d         -13.598 207.357 112.307  0.00  0.00     0.050 C 
ATOM      7  C8   11 d         -14.959 208.074 112.121  0.00  0.00     0.016 C 
ATOM      8  C9   11 d         -16.077 207.051 111.848  0.00  0.00    -0.013 C 
ATOM      9  C10  11 d         -16.186 206.087 113.040  0.00  0.00     0.016 C 
ATOM     10  C11  11 d         -15.734 206.252 110.579  0.00  0.00     0.009 C 
ENDROOT
BRANCH   1  11
ATOM     11  N2   11 d         -12.945 206.476 114.590  0.00  0.00    -0.255 NA
BRANCH  11  12
ATOM     12  N1   11 d         -12.149 206.581 115.680  0.00  0.00    -0.223 NA
BRANCH  12  13
ATOM     13  C1   11 d         -11.354 206.687 116.770  0.00  0.00     0.260 A 
ATOM     14  S1   11 d         -11.813 206.054 118.286  0.00  0.00    -0.066 SA
ATOM     15  C12  11 d         -10.325 206.560 118.993  0.00  0.00     0.186 A 
ATOM     16  C13  11 d          -9.469 207.241 117.958  0.00  0.00     0.234 A 
ATOM     17  O1   11 d          -8.355 207.692 118.111  0.00  0.00    -0.272 OA
ATOM     18  N3   11 d         -10.160 207.286 116.749  0.00  0.00    -0.293 N 
ATOM     19  H    11 d          -9.762 207.766 115.864  0.00  0.00     0.172 HD
ENDBRANCH  12  13
ENDBRANCH  11  12
ENDBRANCH   1  11
TORSDOF 3
ENDMDL
MODEL 10
REMARK VINA RESULT:      -6.3      3.446      3.741
REMARK  3 active torsions:
REMARK  status: ('A' for Active; 'I' for Inactive)
REMARK    1  A    between atoms: C1_1  and  N1_2 
REMARK    2  A    between atoms: N1_2  and  N2_3 
REMARK    3  A    between atoms: N2_3  and  C2_4 
ROOT
ATOM      1  C2   11 d         -13.694 206.490 113.459  0.00  0.00     0.110 C 
ATOM      2  C3   11 d         -13.660 207.395 112.218  0.00  0.00     0.050 C 
ATOM      3  C4   11 d         -15.029 208.074 112.053  0.00  0.00     0.016 C 
ATOM      4  C5   11 d         -16.126 207.009 111.888  0.00  0.00    -0.013 C 
ATOM      5  C6   11 d         -16.153 206.110 113.137  0.00  0.00     0.016 C 
ATOM      6  C7   11 d         -14.791 205.398 113.325  0.00  0.00     0.050 C 
ATOM      7  C8   11 d         -14.474 204.565 112.058  0.00  0.00     0.016 C 
ATOM      8  C9   11 d         -14.450 205.465 110.809  0.00  0.00    -0.013 C 
ATOM      9  C10  11 d         -13.363 206.539 110.978  0.00  0.00     0.016 C 
ATOM     10  C11  11 d         -15.818 206.149 110.652  0.00  0.00     0.009 C 
ENDROOT
BRANCH   1  11
ATOM     11  N2   11 d         -12.913 206.562 114.564  0.00  0.00    -0.255 NA
BRANCH  11  12
ATOM     12  N1   11 d         -12.134 206.633 115.669  0.00  0.00    -0.223 NA
BRANCH  12  13
ATOM     13  C1   11 d         -11.355 206.705 116.774  0.00  0.00     0.260 A 
ATOM     14  S1   11 d         -11.833 206.018 118.260  0.00  0.00    -0.066 SA
ATOM     15  C12  11 d         -10.358 206.508 119.005  0.00  0.00     0.186 A 
ATOM     16  C13  11 d          -9.492 207.229 118.007  0.00  0.00     0.234 A 
ATOM     17  O1   11 d          -8.382 207.680 118.191  0.00  0.00    -0.272 OA
ATOM     18  N3   11 d         -10.165 207.311 116.790  0.00  0.00    -0.293 N 
ATOM     19  H    11 d          -9.757 207.823 115.928  0.00  0.00     0.172 HD
ENDBRANCH  12  13
ENDBRANCH  11  12
ENDBRANCH   1  11
TORSDOF 3
ENDMDL
