MODEL 1
REMARK VINA RESULT:      -9.7      0.000      0.000
REMARK  5 active torsions:
REMARK  status: ('A' for Active; 'I' for Inactive)
REMARK    1  A    between atoms: N3_14  and  N4_15 
REMARK    2  A    between atoms: N4_15  and  C10_16 
REMARK    3  A    between atoms: C13_19  and  C16_22 
REMARK    4  A    between atoms: C16_22  and  S2_23 
REMARK    5  A    between atoms: S2_23  and  N5_26 
ROOT
ATOM      1  C1   11 d         -12.414 207.225 111.410  0.00  0.00     0.158 A 
ATOM      2  C2   11 d         -13.775 206.807 111.763  0.00  0.00     0.046 A 
ATOM      3  C3   11 d         -14.374 206.445 112.975  0.00  0.00     0.050 A 
ATOM      4  C4   11 d         -15.710 206.074 113.028  0.00  0.00     0.075 A 
ATOM      5  N1   11 d         -16.081 205.758 114.296  0.00  0.00    -0.253 NA
ATOM      6  C5   11 d         -15.016 205.906 115.129  0.00  0.00     0.167 A 
ATOM      7  S1   11 d         -13.811 206.364 114.354  0.00  0.00    -0.080 SA
ATOM      8  C6   11 d         -16.503 206.053 111.866  0.00  0.00     0.035 A 
ATOM      9  C7   11 d         -15.912 206.411 110.630  0.00  0.00     0.033 A 
ATOM     10  C8   11 d         -14.550 206.777 110.601  0.00  0.00     0.049 A 
ATOM     11  N2   11 d         -13.755 207.151 109.450  0.00  0.00    -0.321 N 
ATOM     12  C9   11 d         -12.456 207.420 109.934  0.00  0.00     0.277 A 
ATOM     13  O1   11 d         -11.488 207.778 109.183  0.00  0.00    -0.266 OA
ATOM     14  N3   11 d         -11.431 207.384 112.270  0.00  0.00    -0.168 NA
ATOM     15  H4   11 d         -14.093 207.208 108.433  0.00  0.00     0.169 HD
ENDROOT
BRANCH  14  16
ATOM     16  N4   11 d         -10.256 207.725 111.774  0.00  0.00    -0.278 N 
ATOM     17  H5   11 d         -10.070 207.517 110.817  0.00  0.00     0.189 HD
BRANCH  16  18
ATOM     18  C10  11 d          -9.287 208.358 112.542  0.00  0.00     0.050 A 
ATOM     19  C11  11 d          -9.649 208.881 113.800  0.00  0.00     0.031 A 
ATOM     20  C12  11 d          -8.691 209.495 114.623  0.00  0.00     0.010 A 
ATOM     21  C13  11 d          -7.348 209.579 114.213  0.00  0.00    -0.043 A 
ATOM     22  C14  11 d          -6.993 209.099 112.938  0.00  0.00     0.010 A 
ATOM     23  C15  11 d          -7.950 208.487 112.114  0.00  0.00     0.031 A 
BRANCH  21  24
ATOM     24  C16  11 d          -6.342 210.308 115.064  0.00  0.00     0.195 C 
BRANCH  24  25
ATOM     25  S2   11 d          -5.759 209.243 116.424  0.00  0.00     0.213 S 
ATOM     26  O2   11 d          -4.384 209.722 116.897  0.00  0.00    -0.211 OA
ATOM     27  O3   11 d          -5.573 207.808 115.924  0.00  0.00    -0.211 OA
BRANCH  25  28
ATOM     28  N5   11 d          -6.852 209.201 117.803  0.00  0.00    -0.224 NA
ATOM     29  C17  11 d          -7.618 207.937 117.843  0.00  0.00     0.125 C 
ATOM     30  H12  11 d          -6.247 209.267 118.683  0.00  0.00     0.139 HD
ENDBRANCH  25  28
ENDBRANCH  24  25
ENDBRANCH  21  24
ENDBRANCH  16  18
ENDBRANCH  14  16
TORSDOF 5
ENDMDL
MODEL 2
REMARK VINA RESULT:      -8.6      2.339      3.048
REMARK  5 active torsions:
REMARK  status: ('A' for Active; 'I' for Inactive)
REMARK    1  A    between atoms: N3_14  and  N4_15 
REMARK    2  A    between atoms: N4_15  and  C10_16 
REMARK    3  A    between atoms: C13_19  and  C16_22 
REMARK    4  A    between atoms: C16_22  and  S2_23 
REMARK    5  A    between atoms: S2_23  and  N5_26 
ROOT
ATOM      1  C1   11 d         -11.711 207.428 112.780  0.00  0.00     0.158 A 
ATOM      2  C2   11 d         -12.838 206.943 113.584  0.00  0.00     0.046 A 
ATOM      3  C3   11 d         -13.130 207.012 114.950  0.00  0.00     0.050 A 
ATOM      4  C4   11 d         -14.290 206.448 115.461  0.00  0.00     0.075 A 
ATOM      5  N1   11 d         -14.369 206.624 116.806  0.00  0.00    -0.253 NA
ATOM      6  C5   11 d         -13.274 207.306 117.238  0.00  0.00     0.167 A 
ATOM      7  S1   11 d         -12.368 207.622 116.079  0.00  0.00    -0.080 SA
ATOM      8  C6   11 d         -15.209 205.793 114.621  0.00  0.00     0.035 A 
ATOM      9  C7   11 d         -14.927 205.710 113.236  0.00  0.00     0.033 A 
ATOM     10  C8   11 d         -13.737 206.284 112.742  0.00  0.00     0.049 A 
ATOM     11  N2   11 d         -13.253 206.289 111.377  0.00  0.00    -0.321 N 
ATOM     12  C9   11 d         -12.021 206.979 111.394  0.00  0.00     0.277 A 
ATOM     13  O1   11 d         -11.310 207.170 110.351  0.00  0.00    -0.266 OA
ATOM     14  N3   11 d         -10.693 208.115 113.251  0.00  0.00    -0.168 NA
ATOM     15  H4   11 d         -13.741 205.852 110.527  0.00  0.00     0.169 HD
ENDROOT
BRANCH  14  16
ATOM     16  N4   11 d          -9.743 208.437 112.393  0.00  0.00    -0.278 N 
ATOM     17  H5   11 d          -9.972 208.460 111.423  0.00  0.00     0.189 HD
BRANCH  16  18
ATOM     18  C10  11 d          -8.451 208.741 112.803  0.00  0.00     0.050 A 
ATOM     19  C11  11 d          -7.366 208.326 112.004  0.00  0.00     0.031 A 
ATOM     20  C12  11 d          -6.047 208.646 112.364  0.00  0.00     0.010 A 
ATOM     21  C13  11 d          -5.788 209.406 113.519  0.00  0.00    -0.043 A 
ATOM     22  C14  11 d          -6.866 209.784 114.343  0.00  0.00     0.010 A 
ATOM     23  C15  11 d          -8.184 209.463 113.985  0.00  0.00     0.031 A 
BRANCH  21  24
ATOM     24  C16  11 d          -4.370 209.679 113.942  0.00  0.00     0.195 C 
BRANCH  24  25
ATOM     25  S2   11 d          -3.574 208.153 114.545  0.00  0.00     0.213 S 
ATOM     26  O2   11 d          -4.611 207.281 115.258  0.00  0.00    -0.211 OA
ATOM     27  O3   11 d          -2.503 208.495 115.584  0.00  0.00    -0.211 OA
BRANCH  25  28
ATOM     28  N5   11 d          -2.814 207.205 113.272  0.00  0.00    -0.224 NA
ATOM     29  C17  11 d          -1.714 207.955 112.627  0.00  0.00     0.125 C 
ATOM     30  H12  11 d          -2.411 206.328 113.734  0.00  0.00     0.139 HD
ENDBRANCH  25  28
ENDBRANCH  24  25
ENDBRANCH  21  24
ENDBRANCH  16  18
ENDBRANCH  14  16
TORSDOF 5
ENDMDL
MODEL 3
REMARK VINA RESULT:      -8.6      4.964      7.872
REMARK  5 active torsions:
REMARK  status: ('A' for Active; 'I' for Inactive)
REMARK    1  A    between atoms: N3_14  and  N4_15 
REMARK    2  A    between atoms: N4_15  and  C10_16 
REMARK    3  A    between atoms: C13_19  and  C16_22 
REMARK    4  A    between atoms: C16_22  and  S2_23 
REMARK    5  A    between atoms: S2_23  and  N5_26 
ROOT
ATOM      1  C1   11 d         -12.639 206.452 113.412  0.00  0.00     0.158 A 
ATOM      2  C2   11 d         -11.653 207.184 112.611  0.00  0.00     0.046 A 
ATOM      3  C3   11 d         -10.580 208.015 112.951  0.00  0.00     0.050 A 
ATOM      4  C4   11 d          -9.793 208.602 111.971  0.00  0.00     0.075 A 
ATOM      5  N1   11 d          -8.817 209.371 112.521  0.00  0.00    -0.253 NA
ATOM      6  C5   11 d          -8.916 209.325 113.877  0.00  0.00     0.167 A 
ATOM      7  S1   11 d         -10.066 208.444 114.284  0.00  0.00    -0.080 SA
ATOM      8  C6   11 d         -10.049 208.378 110.606  0.00  0.00     0.035 A 
ATOM      9  C7   11 d         -11.134 207.544 110.242  0.00  0.00     0.033 A 
ATOM     10  C8   11 d         -11.924 206.965 111.258  0.00  0.00     0.049 A 
ATOM     11  N2   11 d         -13.082 206.109 111.103  0.00  0.00    -0.321 N 
ATOM     12  C9   11 d         -13.524 205.798 112.407  0.00  0.00     0.277 A 
ATOM     13  O1   11 d         -14.536 205.057 112.646  0.00  0.00    -0.266 OA
ATOM     14  N3   11 d         -12.662 206.417 114.727  0.00  0.00    -0.168 NA
ATOM     15  H4   11 d         -13.513 205.783 110.176  0.00  0.00     0.169 HD
ENDROOT
BRANCH  14  16
ATOM     16  N4   11 d         -13.648 205.741 115.288  0.00  0.00    -0.278 N 
ATOM     17  H5   11 d         -14.242 205.198 114.700  0.00  0.00     0.189 HD
BRANCH  16  18
ATOM     18  C10  11 d         -13.873 205.767 116.658  0.00  0.00     0.050 A 
ATOM     19  C11  11 d         -13.755 206.992 117.346  0.00  0.00     0.031 A 
ATOM     20  C12  11 d         -14.011 207.068 118.724  0.00  0.00     0.010 A 
ATOM     21  C13  11 d         -14.411 205.924 119.438  0.00  0.00    -0.043 A 
ATOM     22  C14  11 d         -14.487 204.690 118.763  0.00  0.00     0.010 A 
ATOM     23  C15  11 d         -14.229 204.613 117.387  0.00  0.00     0.031 A 
BRANCH  21  24
ATOM     24  C16  11 d         -14.608 205.993 120.929  0.00  0.00     0.195 C 
BRANCH  24  25
ATOM     25  S2   11 d         -16.368 206.245 121.334  0.00  0.00     0.213 S 
ATOM     26  O2   11 d         -16.839 207.587 120.766  0.00  0.00    -0.211 OA
ATOM     27  O3   11 d         -16.549 206.327 122.853  0.00  0.00    -0.211 OA
BRANCH  25  28
ATOM     28  N5   11 d         -17.419 204.971 120.728  0.00  0.00    -0.224 NA
ATOM     29  C17  11 d         -18.685 204.909 121.491  0.00  0.00     0.125 C 
ATOM     30  H12  11 d         -17.641 205.208 119.709  0.00  0.00     0.139 HD
ENDBRANCH  25  28
ENDBRANCH  24  25
ENDBRANCH  21  24
ENDBRANCH  16  18
ENDBRANCH  14  16
TORSDOF 5
ENDMDL
MODEL 4
REMARK VINA RESULT:      -8.5      3.261      4.658
REMARK  5 active torsions:
REMARK  status: ('A' for Active; 'I' for Inactive)
REMARK    1  A    between atoms: N3_14  and  N4_15 
REMARK    2  A    between atoms: N4_15  and  C10_16 
REMARK    3  A    between atoms: C13_19  and  C16_22 
REMARK    4  A    between atoms: C16_22  and  S2_23 
REMARK    5  A    between atoms: S2_23  and  N5_26 
ROOT
ATOM      1  C1   11 d         -10.917 207.956 114.488  0.00  0.00     0.158 A 
ATOM      2  C2   11 d         -12.116 207.140 114.271  0.00  0.00     0.046 A 
ATOM      3  C3   11 d         -12.721 206.626 113.118  0.00  0.00     0.050 A 
ATOM      4  C4   11 d         -13.884 205.875 113.197  0.00  0.00     0.075 A 
ATOM      5  N1   11 d         -14.300 205.484 111.964  0.00  0.00    -0.253 NA
ATOM      6  C5   11 d         -13.436 205.957 111.025  0.00  0.00     0.167 A 
ATOM      7  S1   11 d         -12.333 206.741 111.682  0.00  0.00    -0.080 SA
ATOM      8  C6   11 d         -14.489 205.603 114.437  0.00  0.00     0.035 A 
ATOM      9  C7   11 d         -13.894 206.119 115.614  0.00  0.00     0.033 A 
ATOM     10  C8   11 d         -12.716 206.887 115.507  0.00  0.00     0.049 A 
ATOM     11  N2   11 d         -11.968 207.520 116.574  0.00  0.00    -0.321 N 
ATOM     12  C9   11 d         -10.877 208.174 115.961  0.00  0.00     0.277 A 
ATOM     13  O1   11 d         -10.005 208.843 116.612  0.00  0.00    -0.266 OA
ATOM     14  N3   11 d         -10.099 208.355 113.539  0.00  0.00    -0.168 NA
ATOM     15  H4   11 d         -12.205 207.494 117.620  0.00  0.00     0.169 HD
ENDROOT
BRANCH  14  16
ATOM     16  N4   11 d          -9.087 209.120 113.907  0.00  0.00    -0.278 N 
ATOM     17  H5   11 d          -9.286 209.942 114.436  0.00  0.00     0.189 HD
BRANCH  16  18
ATOM     18  C10  11 d          -7.773 208.813 113.581  0.00  0.00     0.050 A 
ATOM     19  C11  11 d          -6.847 208.589 114.620  0.00  0.00     0.031 A 
ATOM     20  C12  11 d          -5.517 208.239 114.332  0.00  0.00     0.010 A 
ATOM     21  C13  11 d          -5.094 208.086 113.000  0.00  0.00    -0.043 A 
ATOM     22  C14  11 d          -6.005 208.353 111.959  0.00  0.00     0.010 A 
ATOM     23  C15  11 d          -7.332 208.704 112.246  0.00  0.00     0.031 A 
BRANCH  21  24
ATOM     24  C16  11 d          -3.650 207.788 112.695  0.00  0.00     0.195 C 
BRANCH  24  25
ATOM     25  S2   11 d          -2.778 209.302 112.172  0.00  0.00     0.213 S 
ATOM     26  O2   11 d          -1.300 209.202 112.558  0.00  0.00    -0.211 OA
ATOM     27  O3   11 d          -3.343 210.515 112.915  0.00  0.00    -0.211 OA
BRANCH  25  28
ATOM     28  N5   11 d          -2.894 209.620 110.445  0.00  0.00    -0.224 NA
ATOM     29  C17  11 d          -3.082 208.368 109.679  0.00  0.00     0.125 C 
ATOM     30  H12  11 d          -3.750 210.246 110.299  0.00  0.00     0.139 HD
ENDBRANCH  25  28
ENDBRANCH  24  25
ENDBRANCH  21  24
ENDBRANCH  16  18
ENDBRANCH  14  16
TORSDOF 5
ENDMDL
MODEL 5
REMARK VINA RESULT:      -8.4      4.548      7.009
REMARK  5 active torsions:
REMARK  status: ('A' for Active; 'I' for Inactive)
REMARK    1  A    between atoms: N3_14  and  N4_15 
REMARK    2  A    between atoms: N4_15  and  C10_16 
REMARK    3  A    between atoms: C13_19  and  C16_22 
REMARK    4  A    between atoms: C16_22  and  S2_23 
REMARK    5  A    between atoms: S2_23  and  N5_26 
ROOT
ATOM      1  C1   11 d         -12.669 206.476 113.363  0.00  0.00     0.158 A 
ATOM      2  C2   11 d         -11.693 207.190 112.533  0.00  0.00     0.046 A 
ATOM      3  C3   11 d         -10.609 208.020 112.842  0.00  0.00     0.050 A 
ATOM      4  C4   11 d          -9.837 208.587 111.839  0.00  0.00     0.075 A 
ATOM      5  N1   11 d          -8.846 209.358 112.359  0.00  0.00    -0.253 NA
ATOM      6  C5   11 d          -8.921 209.334 113.717  0.00  0.00     0.167 A 
ATOM      7  S1   11 d         -10.068 208.466 114.159  0.00  0.00    -0.080 SA
ATOM      8  C6   11 d         -10.117 208.343 110.482  0.00  0.00     0.035 A 
ATOM      9  C7   11 d         -11.213 207.510 110.151  0.00  0.00     0.033 A 
ATOM     10  C8   11 d         -11.988 206.951 111.189  0.00  0.00     0.049 A 
ATOM     11  N2   11 d         -13.154 206.100 111.068  0.00  0.00    -0.321 N 
ATOM     12  C9   11 d         -13.574 205.812 112.385  0.00  0.00     0.277 A 
ATOM     13  O1   11 d         -14.586 205.081 112.654  0.00  0.00    -0.266 OA
ATOM     14  N3   11 d         -12.668 206.463 114.679  0.00  0.00    -0.168 NA
ATOM     15  H4   11 d         -13.603 205.762 110.154  0.00  0.00     0.169 HD
ENDROOT
BRANCH  14  16
ATOM     16  N4   11 d         -13.648 205.801 115.268  0.00  0.00    -0.278 N 
ATOM     17  H5   11 d         -14.242 205.235 114.702  0.00  0.00     0.189 HD
BRANCH  16  18
ATOM     18  C10  11 d         -13.866 205.872 116.637  0.00  0.00     0.050 A 
ATOM     19  C11  11 d         -14.233 204.700 117.331  0.00  0.00     0.031 A 
ATOM     20  C12  11 d         -14.426 204.722 118.722  0.00  0.00     0.010 A 
ATOM     21  C13  11 d         -14.234 205.911 119.450  0.00  0.00    -0.043 A 
ATOM     22  C14  11 d         -13.912 207.092 118.754  0.00  0.00     0.010 A 
ATOM     23  C15  11 d         -13.721 207.072 117.364  0.00  0.00     0.031 A 
BRANCH  21  24
ATOM     24  C16  11 d         -14.519 205.947 120.927  0.00  0.00     0.195 C 
BRANCH  24  25
ATOM     25  S2   11 d         -13.131 205.231 121.867  0.00  0.00     0.213 S 
ATOM     26  O2   11 d         -13.456 203.782 122.241  0.00  0.00    -0.211 OA
ATOM     27  O3   11 d         -12.942 205.989 123.184  0.00  0.00    -0.211 OA
BRANCH  25  28
ATOM     28  N5   11 d         -11.601 205.263 120.998  0.00  0.00    -0.224 NA
ATOM     29  C17  11 d         -10.463 204.982 121.900  0.00  0.00     0.125 C 
ATOM     30  H12  11 d         -11.649 204.496 120.253  0.00  0.00     0.139 HD
ENDBRANCH  25  28
ENDBRANCH  24  25
ENDBRANCH  21  24
ENDBRANCH  16  18
ENDBRANCH  14  16
TORSDOF 5
ENDMDL
MODEL 6
REMARK VINA RESULT:      -8.4      4.919      7.876
REMARK  5 active torsions:
REMARK  status: ('A' for Active; 'I' for Inactive)
REMARK    1  A    between atoms: N3_14  and  N4_15 
REMARK    2  A    between atoms: N4_15  and  C10_16 
REMARK    3  A    between atoms: C13_19  and  C16_22 
REMARK    4  A    between atoms: C16_22  and  S2_23 
REMARK    5  A    between atoms: S2_23  and  N5_26 
ROOT
ATOM      1  C1   11 d         -12.439 207.858 114.466  0.00  0.00     0.158 A 
ATOM      2  C2   11 d         -12.390 207.581 113.027  0.00  0.00     0.046 A 
ATOM      3  C3   11 d         -13.355 207.150 112.109  0.00  0.00     0.050 A 
ATOM      4  C4   11 d         -13.031 206.954 110.774  0.00  0.00     0.075 A 
ATOM      5  N1   11 d         -14.110 206.531 110.065  0.00  0.00    -0.253 NA
ATOM      6  C5   11 d         -15.185 206.430 110.894  0.00  0.00     0.167 A 
ATOM      7  S1   11 d         -14.798 206.821 112.295  0.00  0.00    -0.080 SA
ATOM      8  C6   11 d         -11.726 207.185 110.303  0.00  0.00     0.035 A 
ATOM      9  C7   11 d         -10.736 207.616 111.219  0.00  0.00     0.033 A 
ATOM     10  C8   11 d         -11.088 207.801 112.572  0.00  0.00     0.049 A 
ATOM     11  N2   11 d         -10.230 208.211 113.665  0.00  0.00    -0.321 N 
ATOM     12  C9   11 d         -11.044 208.243 114.819  0.00  0.00     0.277 A 
ATOM     13  O1   11 d         -10.608 208.564 115.975  0.00  0.00    -0.266 OA
ATOM     14  N3   11 d         -13.521 207.776 115.211  0.00  0.00    -0.168 NA
ATOM     15  H4   11 d          -9.184 208.440 113.602  0.00  0.00     0.169 HD
ENDROOT
BRANCH  14  16
ATOM     16  N4   11 d         -13.376 208.021 116.500  0.00  0.00    -0.278 N 
ATOM     17  H5   11 d         -12.992 208.899 116.774  0.00  0.00     0.189 HD
BRANCH  16  18
ATOM     18  C10  11 d         -13.743 207.098 117.471  0.00  0.00     0.050 A 
ATOM     19  C11  11 d         -13.754 205.727 117.140  0.00  0.00     0.031 A 
ATOM     20  C12  11 d         -14.082 204.760 118.103  0.00  0.00     0.010 A 
ATOM     21  C13  11 d         -14.386 205.142 119.422  0.00  0.00    -0.043 A 
ATOM     22  C14  11 d         -14.420 206.513 119.745  0.00  0.00     0.010 A 
ATOM     23  C15  11 d         -14.094 207.480 118.782  0.00  0.00     0.031 A 
BRANCH  21  24
ATOM     24  C16  11 d         -14.814 204.109 120.430  0.00  0.00     0.195 C 
BRANCH  24  25
ATOM     25  S2   11 d         -16.510 203.538 120.084  0.00  0.00     0.213 S 
ATOM     26  O2   11 d         -17.515 204.464 120.776  0.00  0.00    -0.211 OA
ATOM     27  O3   11 d         -16.724 202.142 120.676  0.00  0.00    -0.211 OA
BRANCH  25  28
ATOM     28  N5   11 d         -16.893 203.465 118.368  0.00  0.00    -0.224 NA
ATOM     29  C17  11 d         -16.545 202.148 117.794  0.00  0.00     0.125 C 
ATOM     30  H12  11 d         -17.949 203.614 118.277  0.00  0.00     0.139 HD
ENDBRANCH  25  28
ENDBRANCH  24  25
ENDBRANCH  21  24
ENDBRANCH  16  18
ENDBRANCH  14  16
TORSDOF 5
ENDMDL
MODEL 7
REMARK VINA RESULT:      -8.2      2.955      8.918
REMARK  5 active torsions:
REMARK  status: ('A' for Active; 'I' for Inactive)
REMARK    1  A    between atoms: N3_14  and  N4_15 
REMARK    2  A    between atoms: N4_15  and  C10_16 
REMARK    3  A    between atoms: C13_19  and  C16_22 
REMARK    4  A    between atoms: C16_22  and  S2_23 
REMARK    5  A    between atoms: S2_23  and  N5_26 
ROOT
ATOM      1  C1   11 d          -7.376 209.170 113.467  0.00  0.00     0.158 A 
ATOM      2  C2   11 d          -6.021 208.797 113.888  0.00  0.00     0.046 A 
ATOM      3  C3   11 d          -4.894 208.359 113.183  0.00  0.00     0.050 A 
ATOM      4  C4   11 d          -3.712 208.059 113.845  0.00  0.00     0.075 A 
ATOM      5  N1   11 d          -2.753 207.649 112.974  0.00  0.00    -0.253 NA
ATOM      6  C5   11 d          -3.256 207.661 111.710  0.00  0.00     0.167 A 
ATOM      7  S1   11 d          -4.689 208.121 111.725  0.00  0.00    -0.080 SA
ATOM      8  C6   11 d          -3.610 208.188 115.242  0.00  0.00     0.035 A 
ATOM      9  C7   11 d          -4.742 208.625 115.972  0.00  0.00     0.033 A 
ATOM     10  C8   11 d          -5.935 208.916 115.277  0.00  0.00     0.049 A 
ATOM     11  N2   11 d          -7.201 209.350 115.830  0.00  0.00    -0.321 N 
ATOM     12  C9   11 d          -8.082 209.502 114.736  0.00  0.00     0.277 A 
ATOM     13  O1   11 d          -9.297 209.874 114.861  0.00  0.00    -0.266 OA
ATOM     14  N3   11 d          -7.794 209.196 112.220  0.00  0.00    -0.168 NA
ATOM     15  H4   11 d          -7.419 209.519 116.867  0.00  0.00     0.169 HD
ENDROOT
BRANCH  14  16
ATOM     16  N4   11 d          -9.060 209.516 112.023  0.00  0.00    -0.278 N 
ATOM     17  H5   11 d          -9.312 210.480 112.046  0.00  0.00     0.189 HD
BRANCH  16  18
ATOM     18  C10  11 d         -10.036 208.556 111.788  0.00  0.00     0.050 A 
ATOM     19  C11  11 d         -10.633 207.906 112.887  0.00  0.00     0.031 A 
ATOM     20  C12  11 d         -11.649 206.957 112.693  0.00  0.00     0.010 A 
ATOM     21  C13  11 d         -12.103 206.654 111.397  0.00  0.00    -0.043 A 
ATOM     22  C14  11 d         -11.478 207.268 110.294  0.00  0.00     0.010 A 
ATOM     23  C15  11 d         -10.461 208.215 110.487  0.00  0.00     0.031 A 
BRANCH  21  24
ATOM     24  C16  11 d         -13.136 205.579 111.189  0.00  0.00     0.195 C 
BRANCH  24  25
ATOM     25  S2   11 d         -14.678 205.990 112.071  0.00  0.00     0.213 S 
ATOM     26  O2   11 d         -15.854 205.259 111.418  0.00  0.00    -0.211 OA
ATOM     27  O3   11 d         -14.971 207.488 111.944  0.00  0.00    -0.211 OA
BRANCH  25  28
ATOM     28  N5   11 d         -14.639 205.588 113.784  0.00  0.00    -0.224 NA
ATOM     29  C17  11 d         -14.958 206.764 114.621  0.00  0.00     0.125 C 
ATOM     30  H12  11 d         -15.383 204.836 113.945  0.00  0.00     0.139 HD
ENDBRANCH  25  28
ENDBRANCH  24  25
ENDBRANCH  21  24
ENDBRANCH  16  18
ENDBRANCH  14  16
TORSDOF 5
ENDMDL
MODEL 8
REMARK VINA RESULT:      -8.1      4.068      8.448
REMARK  5 active torsions:
REMARK  status: ('A' for Active; 'I' for Inactive)
REMARK    1  A    between atoms: N3_14  and  N4_15 
REMARK    2  A    between atoms: N4_15  and  C10_16 
REMARK    3  A    between atoms: C13_19  and  C16_22 
REMARK    4  A    between atoms: C16_22  and  S2_23 
REMARK    5  A    between atoms: S2_23  and  N5_26 
ROOT
ATOM      1  C1   11 d          -7.520 209.027 113.858  0.00  0.00     0.158 A 
ATOM      2  C2   11 d          -6.082 208.753 113.774  0.00  0.00     0.046 A 
ATOM      3  C3   11 d          -5.058 208.749 114.728  0.00  0.00     0.050 A 
ATOM      4  C4   11 d          -3.750 208.456 114.370  0.00  0.00     0.075 A 
ATOM      5  N1   11 d          -2.922 208.515 115.445  0.00  0.00    -0.253 NA
ATOM      6  C5   11 d          -3.641 208.846 116.552  0.00  0.00     0.167 A 
ATOM      7  S1   11 d          -5.091 209.029 116.193  0.00  0.00    -0.080 SA
ATOM      8  C6   11 d          -3.414 208.152 113.038  0.00  0.00     0.035 A 
ATOM      9  C7   11 d          -4.436 208.156 112.058  0.00  0.00     0.033 A 
ATOM     10  C8   11 d          -5.757 208.465 112.446  0.00  0.00     0.049 A 
ATOM     11  N2   11 d          -6.934 208.546 111.606  0.00  0.00    -0.321 N 
ATOM     12  C9   11 d          -8.007 208.891 112.456  0.00  0.00     0.277 A 
ATOM     13  O1   11 d          -9.205 209.052 112.044  0.00  0.00    -0.266 OA
ATOM     14  N3   11 d          -8.168 209.309 114.967  0.00  0.00    -0.168 NA
ATOM     15  H4   11 d          -6.973 208.377 110.547  0.00  0.00     0.169 HD
ENDROOT
BRANCH  14  16
ATOM     16  N4   11 d          -9.457 209.570 114.855  0.00  0.00    -0.278 N 
ATOM     17  H5   11 d          -9.742 210.261 114.195  0.00  0.00     0.189 HD
BRANCH  16  18
ATOM     18  C10  11 d         -10.412 208.916 115.622  0.00  0.00     0.050 A 
ATOM     19  C11  11 d         -11.631 208.543 115.021  0.00  0.00     0.031 A 
ATOM     20  C12  11 d         -12.607 207.846 115.752  0.00  0.00     0.010 A 
ATOM     21  C13  11 d         -12.374 207.491 117.093  0.00  0.00    -0.043 A 
ATOM     22  C14  11 d         -11.176 207.902 117.709  0.00  0.00     0.010 A 
ATOM     23  C15  11 d         -10.202 208.599 116.980  0.00  0.00     0.031 A 
BRANCH  21  24
ATOM     24  C16  11 d         -13.454 206.815 117.895  0.00  0.00     0.195 C 
BRANCH  24  25
ATOM     25  S2   11 d         -13.705 205.103 117.320  0.00  0.00     0.213 S 
ATOM     26  O2   11 d         -12.365 204.508 116.878  0.00  0.00    -0.211 OA
ATOM     27  O3   11 d         -14.615 205.091 116.089  0.00  0.00    -0.211 OA
BRANCH  25  28
ATOM     28  N5   11 d         -14.420 204.050 118.536  0.00  0.00    -0.224 NA
ATOM     29  C17  11 d         -15.273 203.014 117.914  0.00  0.00     0.125 C 
ATOM     30  H12  11 d         -13.612 203.571 119.048  0.00  0.00     0.139 HD
ENDBRANCH  25  28
ENDBRANCH  24  25
ENDBRANCH  21  24
ENDBRANCH  16  18
ENDBRANCH  14  16
TORSDOF 5
ENDMDL
MODEL 9
REMARK VINA RESULT:      -8.0      5.702      9.174
REMARK  5 active torsions:
REMARK  status: ('A' for Active; 'I' for Inactive)
REMARK    1  A    between atoms: N3_14  and  N4_15 
REMARK    2  A    between atoms: N4_15  and  C10_16 
REMARK    3  A    between atoms: C13_19  and  C16_22 
REMARK    4  A    between atoms: C16_22  and  S2_23 
REMARK    5  A    between atoms: S2_23  and  N5_26 
ROOT
ATOM      1  C1   11 d         -11.818 207.776 116.777  0.00  0.00     0.158 A 
ATOM      2  C2   11 d         -11.522 207.718 115.342  0.00  0.00     0.046 A 
ATOM      3  C3   11 d         -12.188 207.136 114.257  0.00  0.00     0.050 A 
ATOM      4  C4   11 d         -11.672 207.225 112.973  0.00  0.00     0.075 A 
ATOM      5  N1   11 d         -12.472 206.588 112.078  0.00  0.00    -0.253 NA
ATOM      6  C5   11 d         -13.542 206.056 112.727  0.00  0.00     0.167 A 
ATOM      7  S1   11 d         -13.460 206.360 114.199  0.00  0.00    -0.080 SA
ATOM      8  C6   11 d         -10.466 207.904 112.721  0.00  0.00     0.035 A 
ATOM      9  C7   11 d          -9.775 208.494 113.808  0.00  0.00     0.033 A 
ATOM     10  C8   11 d         -10.317 208.383 115.106  0.00  0.00     0.049 A 
ATOM     11  N2   11 d          -9.764 208.890 116.345  0.00  0.00    -0.321 N 
ATOM     12  C9   11 d         -10.668 208.520 117.364  0.00  0.00     0.277 A 
ATOM     13  O1   11 d         -10.490 208.805 118.596  0.00  0.00    -0.266 OA
ATOM     14  N3   11 d         -12.892 207.270 117.344  0.00  0.00    -0.168 NA
ATOM     15  H4   11 d          -8.846 209.435 116.457  0.00  0.00     0.169 HD
ENDROOT
BRANCH  14  16
ATOM     16  N4   11 d         -12.978 207.376 118.658  0.00  0.00    -0.278 N 
ATOM     17  H5   11 d         -12.326 207.966 119.127  0.00  0.00     0.189 HD
BRANCH  16  18
ATOM     18  C10  11 d         -13.943 206.697 119.390  0.00  0.00     0.050 A 
ATOM     19  C11  11 d         -13.876 205.290 119.466  0.00  0.00     0.031 A 
ATOM     20  C12  11 d         -14.810 204.568 120.226  0.00  0.00     0.010 A 
ATOM     21  C13  11 d         -15.816 205.240 120.944  0.00  0.00    -0.043 A 
ATOM     22  C14  11 d         -15.912 206.641 120.835  0.00  0.00     0.010 A 
ATOM     23  C15  11 d         -14.981 207.363 120.073  0.00  0.00     0.031 A 
BRANCH  21  24
ATOM     24  C16  11 d         -16.861 204.458 121.694  0.00  0.00     0.195 C 
BRANCH  24  25
ATOM     25  S2   11 d         -17.628 203.208 120.611  0.00  0.00     0.213 S 
ATOM     26  O2   11 d         -18.970 202.770 121.203  0.00  0.00    -0.211 OA
ATOM     27  O3   11 d         -16.749 201.957 120.549  0.00  0.00    -0.211 OA
BRANCH  25  28
ATOM     28  N5   11 d         -17.892 203.770 118.963  0.00  0.00    -0.224 NA
ATOM     29  C17  11 d         -17.232 202.883 117.981  0.00  0.00     0.125 C 
ATOM     30  H12  11 d         -18.948 203.751 118.792  0.00  0.00     0.139 HD
ENDBRANCH  25  28
ENDBRANCH  24  25
ENDBRANCH  21  24
ENDBRANCH  16  18
ENDBRANCH  14  16
TORSDOF 5
ENDMDL
MODEL 10
REMARK VINA RESULT:      -8.0      2.879      8.845
REMARK  5 active torsions:
REMARK  status: ('A' for Active; 'I' for Inactive)
REMARK    1  A    between atoms: N3_14  and  N4_15 
REMARK    2  A    between atoms: N4_15  and  C10_16 
REMARK    3  A    between atoms: C13_19  and  C16_22 
REMARK    4  A    between atoms: C16_22  and  S2_23 
REMARK    5  A    between atoms: S2_23  and  N5_26 
ROOT
ATOM      1  C1   11 d          -7.410 208.735 114.096  0.00  0.00     0.158 A 
ATOM      2  C2   11 d          -6.030 208.349 114.411  0.00  0.00     0.046 A 
ATOM      3  C3   11 d          -5.381 208.037 115.611  0.00  0.00     0.050 A 
ATOM      4  C4   11 d          -4.034 207.706 115.628  0.00  0.00     0.075 A 
ATOM      5  N1   11 d          -3.609 207.448 116.892  0.00  0.00    -0.253 NA
ATOM      6  C5   11 d          -4.648 207.596 117.758  0.00  0.00     0.167 A 
ATOM      7  S1   11 d          -5.893 207.992 117.011  0.00  0.00    -0.080 SA
ATOM      8  C6   11 d          -3.281 207.669 114.440  0.00  0.00     0.035 A 
ATOM      9  C7   11 d          -3.921 207.987 113.217  0.00  0.00     0.033 A 
ATOM     10  C8   11 d          -5.289 208.328 113.227  0.00  0.00     0.049 A 
ATOM     11  N2   11 d          -6.119 208.705 112.101  0.00  0.00    -0.321 N 
ATOM     12  C9   11 d          -7.406 208.957 112.622  0.00  0.00     0.277 A 
ATOM     13  O1   11 d          -8.397 209.318 111.901  0.00  0.00    -0.266 OA
ATOM     14  N3   11 d          -8.383 208.828 114.975  0.00  0.00    -0.168 NA
ATOM     15  H4   11 d          -5.808 208.777 111.076  0.00  0.00     0.169 HD
ENDROOT
BRANCH  14  16
ATOM     16  N4   11 d          -9.557 209.231 114.524  0.00  0.00    -0.278 N 
ATOM     17  H5   11 d          -9.647 210.177 114.221  0.00  0.00     0.189 HD
BRANCH  16  18
ATOM     18  C10  11 d         -10.654 208.382 114.462  0.00  0.00     0.050 A 
ATOM     19  C11  11 d         -11.750 208.618 115.318  0.00  0.00     0.031 A 
ATOM     20  C12  11 d         -12.893 207.805 115.260  0.00  0.00     0.010 A 
ATOM     21  C13  11 d         -12.972 206.752 114.330  0.00  0.00    -0.043 A 
ATOM     22  C14  11 d         -11.862 206.486 113.506  0.00  0.00     0.010 A 
ATOM     23  C15  11 d         -10.719 207.296 113.564  0.00  0.00     0.031 A 
BRANCH  21  24
ATOM     24  C16  11 d         -14.166 205.836 114.326  0.00  0.00     0.195 C 
BRANCH  24  25
ATOM     25  S2   11 d         -15.087 205.986 112.760  0.00  0.00     0.213 S 
ATOM     26  O2   11 d         -14.660 204.869 111.804  0.00  0.00    -0.211 OA
ATOM     27  O3   11 d         -14.735 207.308 112.070  0.00  0.00    -0.211 OA
BRANCH  25  28
ATOM     28  N5   11 d         -16.834 205.925 112.961  0.00  0.00    -0.224 NA
ATOM     29  C17  11 d         -17.533 206.306 111.714  0.00  0.00     0.125 C 
ATOM     30  H12  11 d         -17.085 204.914 113.204  0.00  0.00     0.139 HD
ENDBRANCH  25  28
ENDBRANCH  24  25
ENDBRANCH  21  24
ENDBRANCH  16  18
ENDBRANCH  14  16
TORSDOF 5
ENDMDL
