MODEL 1
REMARK VINA RESULT:      -9.3      0.000      0.000
REMARK  0 active torsions:
REMARK  status: ('A' for Active; 'I' for Inactive)
ROOT
ATOM      1  C1   11 d         -11.605 207.074 113.081  0.00  0.00     0.282 A 
ATOM      2  C2   11 d         -12.762 206.547 112.478  0.00  0.00     0.064 A 
ATOM      3  C3   11 d         -12.899 206.704 111.082  0.00  0.00     0.096 A 
ATOM      4  N1   11 d         -11.923 207.348 110.392  0.00  0.00    -0.131 NA
ATOM      5  N2   11 d         -10.867 207.830 111.000  0.00  0.00    -0.057 NA
ATOM      6  N3   11 d         -10.675 207.727 112.300  0.00  0.00    -0.178 N 
ATOM      7  C4   11 d          -9.470 208.316 112.846  0.00  0.00     0.064 A 
ATOM      8  C5   11 d          -8.238 208.131 112.189  0.00  0.00     0.039 A 
ATOM      9  C6   11 d          -7.050 208.716 112.676  0.00  0.00    -0.054 A 
ATOM     10  C7   11 d          -7.086 209.445 113.894  0.00  0.00    -0.056 A 
ATOM     11  C8   11 d          -8.325 209.661 114.528  0.00  0.00     0.009 A 
ATOM     12  C9   11 d          -9.502 209.102 114.012  0.00  0.00     0.032 A 
ATOM     13  C10  11 d          -5.867 210.151 114.439  0.00  0.00     0.049 C 
ATOM     14  C11  11 d          -5.752 208.397 111.975  0.00  0.00     0.049 C 
ATOM     15  C12  11 d         -14.028 206.198 110.418  0.00  0.00     0.034 A 
ATOM     16  C13  11 d         -15.027 205.534 111.143  0.00  0.00     0.002 A 
ATOM     17  C14  11 d         -14.901 205.373 112.531  0.00  0.00     0.001 A 
ATOM     18  C15  11 d         -13.773 205.875 113.200  0.00  0.00     0.020 A 
ATOM     19  O1   11 d         -11.416 206.925 114.318  0.00  0.00    -0.265 OA
ENDROOT
TORSDOF 0
ENDMDL
MODEL 2
REMARK VINA RESULT:      -8.9      1.076      6.595
REMARK  0 active torsions:
REMARK  status: ('A' for Active; 'I' for Inactive)
ROOT
ATOM      1  C1   11 d         -10.915 208.122 113.680  0.00  0.00     0.282 A 
ATOM      2  C2   11 d          -9.590 208.594 113.713  0.00  0.00     0.064 A 
ATOM      3  C3   11 d          -8.832 208.495 112.526  0.00  0.00     0.096 A 
ATOM      4  N1   11 d          -9.406 207.957 111.421  0.00  0.00    -0.131 NA
ATOM      5  N2   11 d         -10.642 207.522 111.441  0.00  0.00    -0.057 NA
ATOM      6  N3   11 d         -11.407 207.575 112.513  0.00  0.00    -0.178 N 
ATOM      7  C4   11 d         -12.751 207.049 112.401  0.00  0.00     0.064 A 
ATOM      8  C5   11 d         -13.533 207.353 111.271  0.00  0.00     0.039 A 
ATOM      9  C6   11 d         -14.835 206.830 111.115  0.00  0.00    -0.054 A 
ATOM     10  C7   11 d         -15.394 206.043 112.156  0.00  0.00    -0.056 A 
ATOM     11  C8   11 d         -14.596 205.708 113.267  0.00  0.00     0.009 A 
ATOM     12  C9   11 d         -13.292 206.206 113.390  0.00  0.00     0.032 A 
ATOM     13  C10  11 d         -16.754 205.400 112.029  0.00  0.00     0.049 C 
ATOM     14  C11  11 d         -15.650 207.275 109.925  0.00  0.00     0.049 C 
ATOM     15  C12  11 d          -7.505 208.951 112.492  0.00  0.00     0.034 A 
ATOM     16  C13  11 d          -6.925 209.507 113.641  0.00  0.00     0.002 A 
ATOM     17  C14  11 d          -7.670 209.609 114.826  0.00  0.00     0.001 A 
ATOM     18  C15  11 d          -8.998 209.157 114.866  0.00  0.00     0.020 A 
ATOM     19  O1   11 d         -11.646 208.224 114.701  0.00  0.00    -0.265 OA
ENDROOT
TORSDOF 0
ENDMDL
MODEL 3
REMARK VINA RESULT:      -8.7      1.672      6.927
REMARK  0 active torsions:
REMARK  status: ('A' for Active; 'I' for Inactive)
ROOT
ATOM      1  C1   11 d         -10.645 207.862 112.657  0.00  0.00     0.282 A 
ATOM      2  C2   11 d          -9.401 208.419 113.004  0.00  0.00     0.064 A 
ATOM      3  C3   11 d          -9.280 209.001 114.284  0.00  0.00     0.096 A 
ATOM      4  N1   11 d         -10.355 209.000 115.113  0.00  0.00    -0.131 NA
ATOM      5  N2   11 d         -11.498 208.477 114.741  0.00  0.00    -0.057 NA
ATOM      6  N3   11 d         -11.686 207.923 113.560  0.00  0.00    -0.178 N 
ATOM      7  C4   11 d         -13.003 207.393 113.274  0.00  0.00     0.064 A 
ATOM      8  C5   11 d         -13.681 206.632 114.245  0.00  0.00     0.039 A 
ATOM      9  C6   11 d         -14.978 206.128 114.011  0.00  0.00    -0.054 A 
ATOM     10  C7   11 d         -15.580 206.330 112.741  0.00  0.00    -0.056 A 
ATOM     11  C8   11 d         -14.916 207.123 111.785  0.00  0.00     0.009 A 
ATOM     12  C9   11 d         -13.643 207.647 112.047  0.00  0.00     0.032 A 
ATOM     13  C10  11 d         -16.989 205.874 112.443  0.00  0.00     0.049 C 
ATOM     14  C11  11 d         -15.605 205.242 115.060  0.00  0.00     0.049 C 
ATOM     15  C12  11 d          -8.064 209.571 114.693  0.00  0.00     0.034 A 
ATOM     16  C13  11 d          -6.961 209.564 113.827  0.00  0.00     0.002 A 
ATOM     17  C14  11 d          -7.071 208.988 112.552  0.00  0.00     0.001 A 
ATOM     18  C15  11 d          -8.284 208.415 112.139  0.00  0.00     0.020 A 
ATOM     19  O1   11 d         -10.793 207.295 111.542  0.00  0.00    -0.265 OA
ENDROOT
TORSDOF 0
ENDMDL
MODEL 4
REMARK VINA RESULT:      -8.6      1.949      7.025
REMARK  0 active torsions:
REMARK  status: ('A' for Active; 'I' for Inactive)
ROOT
ATOM      1  C1   11 d          -7.783 208.539 112.506  0.00  0.00     0.282 A 
ATOM      2  C2   11 d          -6.755 209.128 113.266  0.00  0.00     0.064 A 
ATOM      3  C3   11 d          -7.124 209.811 114.444  0.00  0.00     0.096 A 
ATOM      4  N1   11 d          -8.436 209.871 114.788  0.00  0.00    -0.131 NA
ATOM      5  N2   11 d          -9.359 209.315 114.043  0.00  0.00    -0.057 NA
ATOM      6  N3   11 d          -9.090 208.667 112.927  0.00  0.00    -0.178 N 
ATOM      7  C4   11 d         -10.207 208.110 112.193  0.00  0.00     0.064 A 
ATOM      8  C5   11 d         -11.229 207.426 112.880  0.00  0.00     0.039 A 
ATOM      9  C6   11 d         -12.347 206.899 112.199  0.00  0.00    -0.054 A 
ATOM     10  C7   11 d         -12.404 206.995 110.784  0.00  0.00    -0.056 A 
ATOM     11  C8   11 d         -11.401 207.713 110.103  0.00  0.00     0.009 A 
ATOM     12  C9   11 d         -10.315 208.261 110.798  0.00  0.00     0.032 A 
ATOM     13  C10  11 d         -13.599 206.511 109.998  0.00  0.00     0.049 C 
ATOM     14  C11  11 d         -13.355 206.097 112.986  0.00  0.00     0.049 C 
ATOM     15  C12  11 d          -6.146 210.417 115.249  0.00  0.00     0.034 A 
ATOM     16  C13  11 d          -4.795 210.346 114.882  0.00  0.00     0.002 A 
ATOM     17  C14  11 d          -4.418 209.669 113.712  0.00  0.00     0.001 A 
ATOM     18  C15  11 d          -5.391 209.059 112.905  0.00  0.00     0.020 A 
ATOM     19  O1   11 d          -7.502 207.883 111.468  0.00  0.00    -0.265 OA
ENDROOT
TORSDOF 0
ENDMDL
MODEL 5
REMARK VINA RESULT:      -8.2      1.772      6.693
REMARK  0 active torsions:
REMARK  status: ('A' for Active; 'I' for Inactive)
ROOT
ATOM      1  C1   11 d          -8.689 208.900 113.893  0.00  0.00     0.282 A 
ATOM      2  C2   11 d          -7.402 209.374 114.207  0.00  0.00     0.064 A 
ATOM      3  C3   11 d          -6.379 209.161 113.259  0.00  0.00     0.096 A 
ATOM      4  N1   11 d          -6.675 208.515 112.103  0.00  0.00    -0.131 NA
ATOM      5  N2   11 d          -7.888 208.083 111.858  0.00  0.00    -0.057 NA
ATOM      6  N3   11 d          -8.891 208.240 112.699  0.00  0.00    -0.178 N 
ATOM      7  C4   11 d         -10.179 207.703 112.309  0.00  0.00     0.064 A 
ATOM      8  C5   11 d         -10.651 207.893 110.997  0.00  0.00     0.039 A 
ATOM      9  C6   11 d         -11.886 207.356 110.575  0.00  0.00    -0.054 A 
ATOM     10  C7   11 d         -12.701 206.673 111.516  0.00  0.00    -0.056 A 
ATOM     11  C8   11 d         -12.209 206.451 112.816  0.00  0.00     0.009 A 
ATOM     12  C9   11 d         -10.965 206.960 113.209  0.00  0.00     0.032 A 
ATOM     13  C10  11 d         -14.003 206.019 111.118  0.00  0.00     0.049 C 
ATOM     14  C11  11 d         -12.373 207.680 109.183  0.00  0.00     0.049 C 
ATOM     15  C12  11 d          -5.074 209.614 113.511  0.00  0.00     0.034 A 
ATOM     16  C13  11 d          -4.782 210.280 114.709  0.00  0.00     0.002 A 
ATOM     17  C14  11 d          -5.793 210.497 115.658  0.00  0.00     0.001 A 
ATOM     18  C15  11 d          -7.100 210.049 115.411  0.00  0.00     0.020 A 
ATOM     19  O1   11 d          -9.646 209.101 114.687  0.00  0.00    -0.265 OA
ENDROOT
TORSDOF 0
ENDMDL
MODEL 6
REMARK VINA RESULT:      -8.0      3.767      5.765
REMARK  0 active torsions:
REMARK  status: ('A' for Active; 'I' for Inactive)
ROOT
ATOM      1  C1   11 d         -12.103 206.723 113.932  0.00  0.00     0.282 A 
ATOM      2  C2   11 d         -11.561 207.174 112.714  0.00  0.00     0.064 A 
ATOM      3  C3   11 d         -10.507 208.110 112.776  0.00  0.00     0.096 A 
ATOM      4  N1   11 d         -10.069 208.530 113.990  0.00  0.00    -0.131 NA
ATOM      5  N2   11 d         -10.612 208.089 115.098  0.00  0.00    -0.057 NA
ATOM      6  N3   11 d         -11.603 207.221 115.117  0.00  0.00    -0.178 N 
ATOM      7  C4   11 d         -12.119 206.826 116.412  0.00  0.00     0.064 A 
ATOM      8  C5   11 d         -11.229 206.523 117.460  0.00  0.00     0.039 A 
ATOM      9  C6   11 d         -11.698 206.166 118.742  0.00  0.00    -0.054 A 
ATOM     10  C7   11 d         -13.095 206.037 118.957  0.00  0.00    -0.056 A 
ATOM     11  C8   11 d         -13.983 206.378 117.919  0.00  0.00     0.009 A 
ATOM     12  C9   11 d         -13.502 206.765 116.662  0.00  0.00     0.032 A 
ATOM     13  C10  11 d         -13.668 205.721 120.319  0.00  0.00     0.049 C 
ATOM     14  C11  11 d         -10.688 205.763 119.790  0.00  0.00     0.049 C 
ATOM     15  C12  11 d          -9.920 208.595 111.597  0.00  0.00     0.034 A 
ATOM     16  C13  11 d         -10.382 208.152 110.350  0.00  0.00     0.002 A 
ATOM     17  C14  11 d         -11.430 207.221 110.278  0.00  0.00     0.001 A 
ATOM     18  C15  11 d         -12.019 206.730 111.454  0.00  0.00     0.020 A 
ATOM     19  O1   11 d         -13.019 205.858 113.933  0.00  0.00    -0.265 OA
ENDROOT
TORSDOF 0
ENDMDL
MODEL 7
REMARK VINA RESULT:      -8.0      1.543      1.909
REMARK  0 active torsions:
REMARK  status: ('A' for Active; 'I' for Inactive)
ROOT
ATOM      1  C1   11 d         -11.651 207.163 114.861  0.00  0.00     0.282 A 
ATOM      2  C2   11 d         -12.967 206.681 114.741  0.00  0.00     0.064 A 
ATOM      3  C3   11 d         -13.613 206.851 113.498  0.00  0.00     0.096 A 
ATOM      4  N1   11 d         -12.946 207.464 112.487  0.00  0.00    -0.131 NA
ATOM      5  N2   11 d         -11.723 207.904 112.649  0.00  0.00    -0.057 NA
ATOM      6  N3   11 d         -11.060 207.787 113.782  0.00  0.00    -0.178 N 
ATOM      7  C4   11 d          -9.718 208.329 113.830  0.00  0.00     0.064 A 
ATOM      8  C5   11 d          -8.831 208.104 112.760  0.00  0.00     0.039 A 
ATOM      9  C6   11 d          -7.528 208.644 112.759  0.00  0.00    -0.054 A 
ATOM     10  C7   11 d          -7.077 209.367 113.895  0.00  0.00    -0.056 A 
ATOM     11  C8   11 d          -7.979 209.624 114.946  0.00  0.00     0.009 A 
ATOM     12  C9   11 d          -9.282 209.110 114.916  0.00  0.00     0.032 A 
ATOM     13  C10  11 d          -5.719 210.026 113.936  0.00  0.00     0.049 C 
ATOM     14  C11  11 d          -6.601 208.283 111.624  0.00  0.00     0.049 C 
ATOM     15  C12  11 d         -14.926 206.389 113.311  0.00  0.00     0.034 A 
ATOM     16  C13  11 d         -15.602 205.757 114.364  0.00  0.00     0.002 A 
ATOM     17  C14  11 d         -14.968 205.583 115.604  0.00  0.00     0.001 A 
ATOM     18  C15  11 d         -13.655 206.041 115.796  0.00  0.00     0.020 A 
ATOM     19  O1   11 d         -11.016 207.000 115.937  0.00  0.00    -0.265 OA
ENDROOT
TORSDOF 0
ENDMDL
MODEL 8
REMARK VINA RESULT:      -7.9      4.696      5.823
REMARK  0 active torsions:
REMARK  status: ('A' for Active; 'I' for Inactive)
ROOT
ATOM      1  C1   11 d         -13.499 206.685 113.530  0.00  0.00     0.282 A 
ATOM      2  C2   11 d         -14.169 206.787 112.296  0.00  0.00     0.064 A 
ATOM      3  C3   11 d         -15.565 206.579 112.293  0.00  0.00     0.096 A 
ATOM      4  N1   11 d         -16.192 206.293 113.462  0.00  0.00    -0.131 NA
ATOM      5  N2   11 d         -15.524 206.199 114.585  0.00  0.00    -0.057 NA
ATOM      6  N3   11 d         -14.219 206.374 114.664  0.00  0.00    -0.178 N 
ATOM      7  C4   11 d         -13.604 206.229 115.967  0.00  0.00     0.064 A 
ATOM      8  C5   11 d         -14.209 206.810 117.098  0.00  0.00     0.039 A 
ATOM      9  C6   11 d         -13.653 206.662 118.386  0.00  0.00    -0.054 A 
ATOM     10  C7   11 d         -12.419 205.975 118.533  0.00  0.00    -0.056 A 
ATOM     11  C8   11 d         -11.836 205.362 117.407  0.00  0.00     0.009 A 
ATOM     12  C9   11 d         -12.420 205.489 116.139  0.00  0.00     0.032 A 
ATOM     13  C10  11 d         -11.800 205.725 119.888  0.00  0.00     0.049 C 
ATOM     14  C11  11 d         -14.302 207.391 119.537  0.00  0.00     0.049 C 
ATOM     15  C12  11 d         -16.293 206.671 111.096  0.00  0.00     0.034 A 
ATOM     16  C13  11 d         -15.632 206.969 109.895  0.00  0.00     0.002 A 
ATOM     17  C14  11 d         -14.244 207.177 109.888  0.00  0.00     0.001 A 
ATOM     18  C15  11 d         -13.511 207.089 111.083  0.00  0.00     0.020 A 
ATOM     19  O1   11 d         -12.260 206.901 113.593  0.00  0.00    -0.265 OA
ENDROOT
TORSDOF 0
ENDMDL
MODEL 9
REMARK VINA RESULT:      -7.8      1.703      2.751
REMARK  0 active torsions:
REMARK  status: ('A' for Active; 'I' for Inactive)
ROOT
ATOM      1  C1   11 d         -10.330 207.979 112.098  0.00  0.00     0.282 A 
ATOM      2  C2   11 d         -11.657 207.512 112.122  0.00  0.00     0.064 A 
ATOM      3  C3   11 d         -12.225 207.227 113.382  0.00  0.00     0.096 A 
ATOM      4  N1   11 d         -11.477 207.411 114.499  0.00  0.00    -0.131 NA
ATOM      5  N2   11 d         -10.242 207.840 114.426  0.00  0.00    -0.057 NA
ATOM      6  N3   11 d          -9.643 208.120 113.285  0.00  0.00    -0.178 N 
ATOM      7  C4   11 d          -8.269 208.573 113.346  0.00  0.00     0.064 A 
ATOM      8  C5   11 d          -7.887 209.530 114.306  0.00  0.00     0.039 A 
ATOM      9  C6   11 d          -6.550 209.970 114.414  0.00  0.00    -0.054 A 
ATOM     10  C7   11 d          -5.588 209.493 113.485  0.00  0.00    -0.056 A 
ATOM     11  C8   11 d          -5.964 208.508 112.552  0.00  0.00     0.009 A 
ATOM     12  C9   11 d          -7.288 208.055 112.481  0.00  0.00     0.032 A 
ATOM     13  C10  11 d          -4.129 209.873 113.581  0.00  0.00     0.049 C 
ATOM     14  C11  11 d          -6.232 211.066 115.402  0.00  0.00     0.049 C 
ATOM     15  C12  11 d         -13.547 206.761 113.475  0.00  0.00     0.034 A 
ATOM     16  C13  11 d         -14.308 206.576 112.312  0.00  0.00     0.002 A 
ATOM     17  C14  11 d         -13.752 206.857 111.055  0.00  0.00     0.001 A 
ATOM     18  C15  11 d         -12.432 207.325 110.955  0.00  0.00     0.020 A 
ATOM     19  O1   11 d          -9.790 208.286 111.001  0.00  0.00    -0.265 OA
ENDROOT
TORSDOF 0
ENDMDL
MODEL 10
REMARK VINA RESULT:      -7.7      3.782      7.098
REMARK  0 active torsions:
REMARK  status: ('A' for Active; 'I' for Inactive)
ROOT
ATOM      1  C1   11 d         -11.753 207.506 115.626  0.00  0.00     0.282 A 
ATOM      2  C2   11 d         -11.102 207.385 116.867  0.00  0.00     0.064 A 
ATOM      3  C3   11 d         -11.499 206.327 117.711  0.00  0.00     0.096 A 
ATOM      4  N1   11 d         -12.479 205.484 117.296  0.00  0.00    -0.131 NA
ATOM      5  N2   11 d         -13.063 205.643 116.134  0.00  0.00    -0.057 NA
ATOM      6  N3   11 d         -12.750 206.611 115.297  0.00  0.00    -0.178 N 
ATOM      7  C4   11 d         -13.483 206.679 114.050  0.00  0.00     0.064 A 
ATOM      8  C5   11 d         -13.728 205.504 113.314  0.00  0.00     0.039 A 
ATOM      9  C6   11 d         -14.466 205.531 112.112  0.00  0.00    -0.054 A 
ATOM     10  C7   11 d         -14.907 206.778 111.597  0.00  0.00    -0.056 A 
ATOM     11  C8   11 d         -14.695 207.946 112.354  0.00  0.00     0.009 A 
ATOM     12  C9   11 d         -13.990 207.899 113.564  0.00  0.00     0.032 A 
ATOM     13  C10  11 d         -15.755 206.873 110.351  0.00  0.00     0.049 C 
ATOM     14  C11  11 d         -14.608 204.248 111.328  0.00  0.00     0.049 C 
ATOM     15  C12  11 d         -10.885 206.148 118.961  0.00  0.00     0.034 A 
ATOM     16  C13  11 d          -9.874 207.025 119.377  0.00  0.00     0.002 A 
ATOM     17  C14  11 d          -9.472 208.081 118.545  0.00  0.00     0.001 A 
ATOM     18  C15  11 d         -10.080 208.263 117.292  0.00  0.00     0.020 A 
ATOM     19  O1   11 d         -11.408 208.410 114.818  0.00  0.00    -0.265 OA
ENDROOT
TORSDOF 0
ENDMDL
MODEL 11
REMARK VINA RESULT:      -7.5      2.972      4.108
REMARK  0 active torsions:
REMARK  status: ('A' for Active; 'I' for Inactive)
ROOT
ATOM      1  C1   11 d         -10.781 207.537 114.163  0.00  0.00     0.282 A 
ATOM      2  C2   11 d         -10.976 207.546 112.769  0.00  0.00     0.064 A 
ATOM      3  C3   11 d         -10.101 208.336 111.993  0.00  0.00     0.096 A 
ATOM      4  N1   11 d          -9.124 209.043 112.616  0.00  0.00    -0.131 NA
ATOM      5  N2   11 d          -8.988 209.011 113.918  0.00  0.00    -0.057 NA
ATOM      6  N3   11 d          -9.771 208.302 114.707  0.00  0.00    -0.178 N 
ATOM      7  C4   11 d          -9.518 208.366 116.132  0.00  0.00     0.064 A 
ATOM      8  C5   11 d          -8.198 208.288 116.615  0.00  0.00     0.039 A 
ATOM      9  C6   11 d          -7.913 208.379 117.994  0.00  0.00    -0.054 A 
ATOM     10  C7   11 d          -8.987 208.475 118.917  0.00  0.00    -0.056 A 
ATOM     11  C8   11 d         -10.303 208.591 118.430  0.00  0.00     0.009 A 
ATOM     12  C9   11 d         -10.566 208.535 117.055  0.00  0.00     0.032 A 
ATOM     13  C10  11 d          -8.753 208.639 120.400  0.00  0.00     0.049 C 
ATOM     14  C11  11 d          -6.485 208.192 118.447  0.00  0.00     0.049 C 
ATOM     15  C12  11 d         -10.239 208.384 110.597  0.00  0.00     0.034 A 
ATOM     16  C13  11 d         -11.251 207.647 109.967  0.00  0.00     0.002 A 
ATOM     17  C14  11 d         -12.127 206.859 110.730  0.00  0.00     0.001 A 
ATOM     18  C15  11 d         -11.992 206.804 112.126  0.00  0.00     0.020 A 
ATOM     19  O1   11 d         -11.510 206.817 114.896  0.00  0.00    -0.265 OA
ENDROOT
TORSDOF 0
ENDMDL
MODEL 12
REMARK VINA RESULT:      -7.3      4.303      6.420
REMARK  0 active torsions:
REMARK  status: ('A' for Active; 'I' for Inactive)
ROOT
ATOM      1  C1   11 d         -13.943 207.076 115.313  0.00  0.00     0.282 A 
ATOM      2  C2   11 d         -13.477 206.789 116.610  0.00  0.00     0.064 A 
ATOM      3  C3   11 d         -12.365 205.928 116.728  0.00  0.00     0.096 A 
ATOM      4  N1   11 d         -11.802 205.421 115.602  0.00  0.00    -0.131 NA
ATOM      5  N2   11 d         -12.277 205.710 114.416  0.00  0.00    -0.057 NA
ATOM      6  N3   11 d         -13.316 206.499 114.229  0.00  0.00    -0.178 N 
ATOM      7  C4   11 d         -13.746 206.726 112.864  0.00  0.00     0.064 A 
ATOM      8  C5   11 d         -12.793 206.984 111.861  0.00  0.00     0.039 A 
ATOM      9  C6   11 d         -13.175 207.178 110.517  0.00  0.00    -0.054 A 
ATOM     10  C7   11 d         -14.555 207.185 110.183  0.00  0.00    -0.056 A 
ATOM     11  C8   11 d         -15.503 206.888 111.181  0.00  0.00     0.009 A 
ATOM     12  C9   11 d         -15.105 206.663 112.505  0.00  0.00     0.032 A 
ATOM     13  C10  11 d         -15.031 207.322 108.757  0.00  0.00     0.049 C 
ATOM     14  C11  11 d         -12.109 207.544 109.512  0.00  0.00     0.049 C 
ATOM     15  C12  11 d         -11.848 205.606 117.993  0.00  0.00     0.034 A 
ATOM     16  C13  11 d         -12.439 206.138 119.147  0.00  0.00     0.002 A 
ATOM     17  C14  11 d         -13.546 206.994 119.041  0.00  0.00     0.001 A 
ATOM     18  C15  11 d         -14.065 207.323 117.778  0.00  0.00     0.020 A 
ATOM     19  O1   11 d         -14.908 207.870 115.152  0.00  0.00    -0.265 OA
ENDROOT
TORSDOF 0
ENDMDL
MODEL 13
REMARK VINA RESULT:      -7.3      2.701      3.456
REMARK  0 active torsions:
REMARK  status: ('A' for Active; 'I' for Inactive)
ROOT
ATOM      1  C1   11 d         -12.815 206.378 114.453  0.00  0.00     0.282 A 
ATOM      2  C2   11 d         -13.395 206.148 113.192  0.00  0.00     0.064 A 
ATOM      3  C3   11 d         -12.911 206.903 112.103  0.00  0.00     0.096 A 
ATOM      4  N1   11 d         -11.922 207.808 112.316  0.00  0.00    -0.131 NA
ATOM      5  N2   11 d         -11.419 207.995 113.511  0.00  0.00    -0.057 NA
ATOM      6  N3   11 d         -11.825 207.331 114.575  0.00  0.00    -0.178 N 
ATOM      7  C4   11 d         -11.192 207.645 115.839  0.00  0.00     0.064 A 
ATOM      8  C5   11 d          -9.794 207.798 115.906  0.00  0.00     0.039 A 
ATOM      9  C6   11 d          -9.148 208.134 117.114  0.00  0.00    -0.054 A 
ATOM     10  C7   11 d          -9.918 208.247 118.302  0.00  0.00    -0.056 A 
ATOM     11  C8   11 d         -11.319 208.132 118.226  0.00  0.00     0.009 A 
ATOM     12  C9   11 d         -11.949 207.833 117.010  0.00  0.00     0.032 A 
ATOM     13  C10  11 d          -9.302 208.666 119.616  0.00  0.00     0.049 C 
ATOM     14  C11  11 d          -7.640 208.188 117.132  0.00  0.00     0.049 C 
ATOM     15  C12  11 d         -13.445 206.718 110.817  0.00  0.00     0.034 A 
ATOM     16  C13  11 d         -14.466 205.779 110.612  0.00  0.00     0.002 A 
ATOM     17  C14  11 d         -14.954 205.023 111.688  0.00  0.00     0.001 A 
ATOM     18  C15  11 d         -14.422 205.202 112.975  0.00  0.00     0.020 A 
ATOM     19  O1   11 d         -13.183 205.701 115.449  0.00  0.00    -0.265 OA
ENDROOT
TORSDOF 0
ENDMDL
MODEL 14
REMARK VINA RESULT:      -7.3      3.765      6.040
REMARK  0 active torsions:
REMARK  status: ('A' for Active; 'I' for Inactive)
ROOT
ATOM      1  C1   11 d         -12.232 206.315 115.767  0.00  0.00     0.282 A 
ATOM      2  C2   11 d         -12.636 206.281 117.115  0.00  0.00     0.064 A 
ATOM      3  C3   11 d         -13.856 206.909 117.445  0.00  0.00     0.096 A 
ATOM      4  N1   11 d         -14.576 207.510 116.464  0.00  0.00    -0.131 NA
ATOM      5  N2   11 d         -14.153 207.524 115.224  0.00  0.00    -0.057 NA
ATOM      6  N3   11 d         -13.022 206.965 114.843  0.00  0.00    -0.178 N 
ATOM      7  C4   11 d         -12.667 207.065 113.442  0.00  0.00     0.064 A 
ATOM      8  C5   11 d         -13.642 206.836 112.452  0.00  0.00     0.039 A 
ATOM      9  C6   11 d         -13.338 206.956 111.080  0.00  0.00    -0.054 A 
ATOM     10  C7   11 d         -12.003 207.239 110.688  0.00  0.00    -0.056 A 
ATOM     11  C8   11 d         -11.039 207.505 111.680  0.00  0.00     0.009 A 
ATOM     12  C9   11 d         -11.365 207.417 113.039  0.00  0.00     0.032 A 
ATOM     13  C10  11 d         -11.621 207.444 109.241  0.00  0.00     0.049 C 
ATOM     14  C11  11 d         -14.407 206.604 110.074  0.00  0.00     0.049 C 
ATOM     15  C12  11 d         -14.319 206.906 118.771  0.00  0.00     0.034 A 
ATOM     16  C13  11 d         -13.566 206.280 119.774  0.00  0.00     0.002 A 
ATOM     17  C14  11 d         -12.351 205.654 119.456  0.00  0.00     0.001 A 
ATOM     18  C15  11 d         -11.885 205.650 118.132  0.00  0.00     0.020 A 
ATOM     19  O1   11 d         -11.171 205.735 115.414  0.00  0.00    -0.265 OA
ENDROOT
TORSDOF 0
ENDMDL
MODEL 15
REMARK VINA RESULT:      -7.0      6.743      8.503
REMARK  0 active torsions:
REMARK  status: ('A' for Active; 'I' for Inactive)
ROOT
ATOM      1  C1   11 d         -14.543 205.000 119.288  0.00  0.00     0.282 A 
ATOM      2  C2   11 d         -15.028 204.886 120.604  0.00  0.00     0.064 A 
ATOM      3  C3   11 d         -15.036 206.051 121.400  0.00  0.00     0.096 A 
ATOM      4  N1   11 d         -14.580 207.215 120.870  0.00  0.00    -0.131 NA
ATOM      5  N2   11 d         -14.129 207.270 119.641  0.00  0.00    -0.057 NA
ATOM      6  N3   11 d         -14.085 206.223 118.843  0.00  0.00    -0.178 N 
ATOM      7  C4   11 d         -13.551 206.420 117.511  0.00  0.00     0.064 A 
ATOM      8  C5   11 d         -13.935 207.548 116.760  0.00  0.00     0.039 A 
ATOM      9  C6   11 d         -13.409 207.788 115.473  0.00  0.00    -0.054 A 
ATOM     10  C7   11 d         -12.533 206.832 114.894  0.00  0.00    -0.056 A 
ATOM     11  C8   11 d         -12.121 205.726 115.661  0.00  0.00     0.009 A 
ATOM     12  C9   11 d         -12.625 205.521 116.953  0.00  0.00     0.032 A 
ATOM     13  C10  11 d         -11.884 207.056 113.548  0.00  0.00     0.049 C 
ATOM     14  C11  11 d         -13.937 208.965 114.689  0.00  0.00     0.049 C 
ATOM     15  C12  11 d         -15.511 206.005 122.720  0.00  0.00     0.034 A 
ATOM     16  C13  11 d         -15.979 204.796 123.255  0.00  0.00     0.002 A 
ATOM     17  C14  11 d         -15.976 203.632 122.471  0.00  0.00     0.001 A 
ATOM     18  C15  11 d         -15.504 203.672 121.149  0.00  0.00     0.020 A 
ATOM     19  O1   11 d         -14.553 203.999 118.524  0.00  0.00    -0.265 OA
ENDROOT
TORSDOF 0
ENDMDL
MODEL 16
REMARK VINA RESULT:      -6.9      5.611      7.416
REMARK  0 active torsions:
REMARK  status: ('A' for Active; 'I' for Inactive)
ROOT
ATOM      1  C1   11 d         -14.041 206.200 116.539  0.00  0.00     0.282 A 
ATOM      2  C2   11 d         -14.098 205.708 117.855  0.00  0.00     0.064 A 
ATOM      3  C3   11 d         -14.838 204.527 118.079  0.00  0.00     0.096 A 
ATOM      4  N1   11 d         -15.456 203.928 117.029  0.00  0.00    -0.131 NA
ATOM      5  N2   11 d         -15.382 204.430 115.822  0.00  0.00    -0.057 NA
ATOM      6  N3   11 d         -14.716 205.531 115.539  0.00  0.00    -0.178 N 
ATOM      7  C4   11 d         -14.726 205.984 114.163  0.00  0.00     0.064 A 
ATOM      8  C5   11 d         -14.539 205.059 113.118  0.00  0.00     0.039 A 
ATOM      9  C6   11 d         -14.574 205.460 111.766  0.00  0.00    -0.054 A 
ATOM     10  C7   11 d         -14.728 206.837 111.457  0.00  0.00    -0.056 A 
ATOM     11  C8   11 d         -14.954 207.754 112.501  0.00  0.00     0.009 A 
ATOM     12  C9   11 d         -14.951 207.334 113.838  0.00  0.00     0.032 A 
ATOM     13  C10  11 d         -14.839 207.329 110.033  0.00  0.00     0.049 C 
ATOM     14  C11  11 d         -14.272 204.432 110.703  0.00  0.00     0.049 C 
ATOM     15  C12  11 d         -14.931 203.981 119.369  0.00  0.00     0.034 A 
ATOM     16  C13  11 d         -14.286 204.610 120.444  0.00  0.00     0.002 A 
ATOM     17  C14  11 d         -13.547 205.785 120.232  0.00  0.00     0.001 A 
ATOM     18  C15  11 d         -13.449 206.334 118.943  0.00  0.00     0.020 A 
ATOM     19  O1   11 d         -13.360 207.228 116.279  0.00  0.00    -0.265 OA
ENDROOT
TORSDOF 0
ENDMDL
MODEL 17
REMARK VINA RESULT:      -6.7      3.118      3.938
REMARK  0 active torsions:
REMARK  status: ('A' for Active; 'I' for Inactive)
ROOT
ATOM      1  C1   11 d         -11.489 206.999 115.266  0.00  0.00     0.282 A 
ATOM      2  C2   11 d         -12.013 206.823 113.972  0.00  0.00     0.064 A 
ATOM      3  C3   11 d         -11.366 207.491 112.910  0.00  0.00     0.096 A 
ATOM      4  N1   11 d         -10.283 208.264 113.180  0.00  0.00    -0.131 NA
ATOM      5  N2   11 d          -9.838 208.405 114.404  0.00  0.00    -0.057 NA
ATOM      6  N3   11 d         -10.394 207.818 115.445  0.00  0.00    -0.178 N 
ATOM      7  C4   11 d          -9.808 208.068 116.745  0.00  0.00     0.064 A 
ATOM      8  C5   11 d          -8.409 208.041 116.902  0.00  0.00     0.039 A 
ATOM      9  C6   11 d          -7.804 208.312 118.148  0.00  0.00    -0.054 A 
ATOM     10  C7   11 d          -8.626 208.544 119.281  0.00  0.00    -0.056 A 
ATOM     11  C8   11 d         -10.023 208.609 119.114  0.00  0.00     0.009 A 
ATOM     12  C9   11 d         -10.607 208.373 117.862  0.00  0.00     0.032 A 
ATOM     13  C10  11 d          -8.047 208.902 120.629  0.00  0.00     0.049 C 
ATOM     14  C11  11 d          -6.305 208.171 118.264  0.00  0.00     0.049 C 
ATOM     15  C12  11 d         -11.836 207.353 111.595  0.00  0.00     0.034 A 
ATOM     16  C13  11 d         -12.955 206.551 111.330  0.00  0.00     0.002 A 
ATOM     17  C14  11 d         -13.605 205.882 112.379  0.00  0.00     0.001 A 
ATOM     18  C15  11 d         -13.138 206.014 113.697  0.00  0.00     0.020 A 
ATOM     19  O1   11 d         -12.005 206.392 116.242  0.00  0.00    -0.265 OA
ENDROOT
TORSDOF 0
ENDMDL
MODEL 18
REMARK VINA RESULT:      -6.6      4.577      5.749
REMARK  0 active torsions:
REMARK  status: ('A' for Active; 'I' for Inactive)
ROOT
ATOM      1  C1   11 d         -10.812 208.161 116.298  0.00  0.00     0.282 A 
ATOM      2  C2   11 d         -12.091 208.012 115.729  0.00  0.00     0.064 A 
ATOM      3  C3   11 d         -13.157 207.692 116.596  0.00  0.00     0.096 A 
ATOM      4  N1   11 d         -12.907 207.543 117.922  0.00  0.00    -0.131 NA
ATOM      5  N2   11 d         -11.697 207.683 118.404  0.00  0.00    -0.057 NA
ATOM      6  N3   11 d         -10.652 207.974 117.655  0.00  0.00    -0.178 N 
ATOM      7  C4   11 d          -9.368 208.087 118.315  0.00  0.00     0.064 A 
ATOM      8  C5   11 d          -9.263 208.788 119.532  0.00  0.00     0.039 A 
ATOM      9  C6   11 d          -8.034 208.890 120.217  0.00  0.00    -0.054 A 
ATOM     10  C7   11 d          -6.865 208.339 119.628  0.00  0.00    -0.056 A 
ATOM     11  C8   11 d          -6.980 207.607 118.431  0.00  0.00     0.009 A 
ATOM     12  C9   11 d          -8.215 207.484 117.781  0.00  0.00     0.032 A 
ATOM     13  C10  11 d          -5.531 208.357 120.335  0.00  0.00     0.049 C 
ATOM     14  C11  11 d          -7.976 209.736 121.466  0.00  0.00     0.049 C 
ATOM     15  C12  11 d         -14.458 207.534 116.092  0.00  0.00     0.034 A 
ATOM     16  C13  11 d         -14.702 207.692 114.721  0.00  0.00     0.002 A 
ATOM     17  C14  11 d         -13.648 208.010 113.850  0.00  0.00     0.001 A 
ATOM     18  C15  11 d         -12.346 208.172 114.349  0.00  0.00     0.020 A 
ATOM     19  O1   11 d          -9.834 208.486 115.573  0.00  0.00    -0.265 OA
ENDROOT
TORSDOF 0
ENDMDL
MODEL 19
REMARK VINA RESULT:      -6.5      5.128      6.698
REMARK  0 active torsions:
REMARK  status: ('A' for Active; 'I' for Inactive)
ROOT
ATOM      1  C1   11 d         -13.005 205.966 115.824  0.00  0.00     0.282 A 
ATOM      2  C2   11 d         -12.679 206.330 114.504  0.00  0.00     0.064 A 
ATOM      3  C3   11 d         -11.574 207.188 114.319  0.00  0.00     0.096 A 
ATOM      4  N1   11 d         -10.885 207.619 115.406  0.00  0.00    -0.131 NA
ATOM      5  N2   11 d         -11.232 207.260 116.616  0.00  0.00    -0.057 NA
ATOM      6  N3   11 d         -12.256 206.468 116.867  0.00  0.00    -0.178 N 
ATOM      7  C4   11 d         -12.538 206.160 118.253  0.00  0.00     0.064 A 
ATOM      8  C5   11 d         -11.486 205.831 119.129  0.00  0.00     0.039 A 
ATOM      9  C6   11 d         -11.722 205.557 120.492  0.00  0.00    -0.054 A 
ATOM     10  C7   11 d         -13.058 205.539 120.973  0.00  0.00    -0.056 A 
ATOM     11  C8   11 d         -14.104 205.905 120.106  0.00  0.00     0.009 A 
ATOM     12  C9   11 d         -13.849 206.210 118.762  0.00  0.00     0.032 A 
ATOM     13  C10  11 d         -13.378 205.316 122.432  0.00  0.00     0.049 C 
ATOM     14  C11  11 d         -10.559 205.120 121.349  0.00  0.00     0.049 C 
ATOM     15  C12  11 d         -11.194 207.585 113.027  0.00  0.00     0.034 A 
ATOM     16  C13  11 d         -11.914 207.131 111.914  0.00  0.00     0.002 A 
ATOM     17  C14  11 d         -13.015 206.278 112.088  0.00  0.00     0.001 A 
ATOM     18  C15  11 d         -13.398 205.875 113.376  0.00  0.00     0.020 A 
ATOM     19  O1   11 d         -13.958 205.170 116.040  0.00  0.00    -0.265 OA
ENDROOT
TORSDOF 0
ENDMDL
MODEL 20
REMARK VINA RESULT:      -6.5      5.065      6.522
REMARK  0 active torsions:
REMARK  status: ('A' for Active; 'I' for Inactive)
ROOT
ATOM      1  C1   11 d         -13.166 206.133 117.608  0.00  0.00     0.282 A 
ATOM      2  C2   11 d         -13.466 205.726 118.921  0.00  0.00     0.064 A 
ATOM      3  C3   11 d         -12.410 205.717 119.858  0.00  0.00     0.096 A 
ATOM      4  N1   11 d         -11.170 206.094 119.457  0.00  0.00    -0.131 NA
ATOM      5  N2   11 d         -10.937 206.457 118.220  0.00  0.00    -0.057 NA
ATOM      6  N3   11 d         -11.871 206.483 117.290  0.00  0.00    -0.178 N 
ATOM      7  C4   11 d         -11.475 206.892 115.958  0.00  0.00     0.064 A 
ATOM      8  C5   11 d         -10.632 208.007 115.787  0.00  0.00     0.039 A 
ATOM      9  C6   11 d         -10.201 208.413 114.506  0.00  0.00    -0.054 A 
ATOM     10  C7   11 d         -10.689 207.728 113.362  0.00  0.00    -0.056 A 
ATOM     11  C8   11 d         -11.501 206.591 113.538  0.00  0.00     0.009 A 
ATOM     12  C9   11 d         -11.891 206.179 114.819  0.00  0.00     0.032 A 
ATOM     13  C10  11 d         -10.221 208.068 111.967  0.00  0.00     0.049 C 
ATOM     14  C11  11 d          -9.376 209.672 114.391  0.00  0.00     0.049 C 
ATOM     15  C12  11 d         -12.644 205.326 121.186  0.00  0.00     0.034 A 
ATOM     16  C13  11 d         -13.931 204.939 121.587  0.00  0.00     0.002 A 
ATOM     17  C14  11 d         -14.987 204.945 120.662  0.00  0.00     0.001 A 
ATOM     18  C15  11 d         -14.760 205.338 119.334  0.00  0.00     0.020 A 
ATOM     19  O1   11 d         -14.081 206.197 116.744  0.00  0.00    -0.265 OA
ENDROOT
TORSDOF 0
ENDMDL
