MODEL 1
REMARK VINA RESULT:      -8.8      0.000      0.000
REMARK  4 active torsions:
REMARK  status: ('A' for Active; 'I' for Inactive)
REMARK    1  A    between atoms: N2_12  and  N3_13 
REMARK    2  A    between atoms: N3_13  and  C9_14 
REMARK    3  A    between atoms: C12_17  and  S1_18 
REMARK    4  A    between atoms: S1_18  and  N4_21 
ROOT
ATOM      1  N3   11 d         -11.592 207.568 113.776  0.00  0.00    -0.278 N 
ATOM      2  H5   11 d         -11.943 207.445 112.852  0.00  0.00     0.189 HD
ENDROOT
BRANCH   1   3
ATOM      3  N2   11 d         -12.335 207.155 114.786  0.00  0.00    -0.168 NA
ATOM      4  C1   11 d         -13.549 206.694 114.565  0.00  0.00     0.157 A 
ATOM      5  C2   11 d         -14.415 206.118 115.611  0.00  0.00     0.277 A 
ATOM      6  C4   11 d         -14.360 206.633 113.323  0.00  0.00     0.028 A 
ATOM      7  O1   11 d         -14.108 205.968 116.845  0.00  0.00    -0.266 OA
ATOM      8  N1   11 d         -15.655 205.742 115.068  0.00  0.00    -0.321 N 
ATOM      9  C3   11 d         -15.596 206.076 113.661  0.00  0.00     0.048 A 
ATOM     10  H1   11 d         -16.485 205.297 115.584  0.00  0.00     0.169 HD
ATOM     11  C8   11 d         -16.606 205.904 112.709  0.00  0.00     0.032 A 
ATOM     12  C7   11 d         -16.369 206.329 111.390  0.00  0.00     0.021 A 
ATOM     13  C6   11 d         -15.128 206.901 111.039  0.00  0.00     0.011 A 
ATOM     14  C5   11 d         -14.111 207.046 112.002  0.00  0.00     0.035 A 
ATOM     15 Br1   11 d         -14.828 207.505 109.234  0.00  0.00    -0.051 Br
ENDBRANCH   1   3
BRANCH   1  16
ATOM     16  C9   11 d         -10.342 208.144 113.954  0.00  0.00     0.050 A 
ATOM     17  C10  11 d          -9.970 208.580 115.241  0.00  0.00     0.032 A 
ATOM     18  C11  11 d          -8.700 209.128 115.471  0.00  0.00     0.027 A 
ATOM     19  C12  11 d          -7.770 209.221 114.421  0.00  0.00     0.074 A 
ATOM     20  C13  11 d          -8.136 208.797 113.134  0.00  0.00     0.027 A 
ATOM     21  C14  11 d          -9.418 208.275 112.896  0.00  0.00     0.032 A 
BRANCH  19  22
ATOM     22  S1   11 d          -6.117 209.862 114.711  0.00  0.00     0.239 S 
ATOM     23  O2   11 d          -5.431 209.029 115.796  0.00  0.00    -0.206 OA
ATOM     24  O3   11 d          -6.182 211.300 115.231  0.00  0.00    -0.206 OA
BRANCH  22  25
ATOM     25  N4   11 d          -5.124 209.829 113.271  0.00  0.00    -0.225 NA
ATOM     26  H8   11 d          -4.867 210.846 113.063  0.00  0.00     0.136 HD
ATOM     27  H9   11 d          -4.213 209.339 113.542  0.00  0.00     0.136 HD
ENDBRANCH  22  25
ENDBRANCH  19  22
ENDBRANCH   1  16
TORSDOF 4
ENDMDL
MODEL 2
REMARK VINA RESULT:      -8.7      2.699      3.612
REMARK  4 active torsions:
REMARK  status: ('A' for Active; 'I' for Inactive)
REMARK    1  A    between atoms: N2_12  and  N3_13 
REMARK    2  A    between atoms: N3_13  and  C9_14 
REMARK    3  A    between atoms: C12_17  and  S1_18 
REMARK    4  A    between atoms: S1_18  and  N4_21 
ROOT
ATOM      1  N3   11 d          -9.024 209.696 114.137  0.00  0.00    -0.278 N 
ATOM      2  H5   11 d          -9.563 210.219 113.482  0.00  0.00     0.189 HD
ENDROOT
BRANCH   1   3
ATOM      3  N2   11 d          -9.639 209.201 115.197  0.00  0.00    -0.168 NA
ATOM      4  C1   11 d         -10.547 208.258 115.051  0.00  0.00     0.157 A 
ATOM      5  C2   11 d         -11.214 207.575 116.175  0.00  0.00     0.277 A 
ATOM      6  C4   11 d         -11.146 207.659 113.832  0.00  0.00     0.028 A 
ATOM      7  O1   11 d         -10.993 207.781 117.419  0.00  0.00    -0.266 OA
ATOM      8  N1   11 d         -12.149 206.642 115.697  0.00  0.00    -0.321 N 
ATOM      9  C3   11 d         -12.091 206.720 114.253  0.00  0.00     0.048 A 
ATOM     10  H1   11 d         -12.783 205.999 116.276  0.00  0.00     0.169 HD
ATOM     11  C8   11 d         -12.856 205.991 113.336  0.00  0.00     0.032 A 
ATOM     12  C7   11 d         -12.679 206.237 111.964  0.00  0.00     0.021 A 
ATOM     13  C6   11 d         -11.735 207.190 111.528  0.00  0.00     0.011 A 
ATOM     14  C5   11 d         -10.954 207.899 112.460  0.00  0.00     0.035 A 
ATOM     15 Br1   11 d         -11.525 207.536 109.643  0.00  0.00    -0.051 Br
ENDBRANCH   1   3
BRANCH   1  16
ATOM     16  C9   11 d          -7.673 209.495 113.897  0.00  0.00     0.050 A 
ATOM     17  C10  11 d          -7.288 208.637 112.849  0.00  0.00     0.032 A 
ATOM     18  C11  11 d          -5.932 208.441 112.547  0.00  0.00     0.027 A 
ATOM     19  C12  11 d          -4.941 209.124 113.272  0.00  0.00     0.074 A 
ATOM     20  C13  11 d          -5.316 209.975 114.324  0.00  0.00     0.027 A 
ATOM     21  C14  11 d          -6.672 210.149 114.646  0.00  0.00     0.032 A 
BRANCH  19  22
ATOM     22  S1   11 d          -3.203 208.935 112.858  0.00  0.00     0.239 S 
ATOM     23  O2   11 d          -3.029 207.735 111.923  0.00  0.00    -0.206 OA
ATOM     24  O3   11 d          -2.381 208.639 114.115  0.00  0.00    -0.206 OA
BRANCH  22  25
ATOM     25  N4   11 d          -2.542 210.353 112.075  0.00  0.00    -0.225 NA
ATOM     26  H8   11 d          -3.297 210.701 111.403  0.00  0.00     0.136 HD
ATOM     27  H9   11 d          -2.447 211.100 112.833  0.00  0.00     0.136 HD
ENDBRANCH  22  25
ENDBRANCH  19  22
ENDBRANCH   1  16
TORSDOF 4
ENDMDL
MODEL 3
REMARK VINA RESULT:      -8.7      5.037      6.855
REMARK  4 active torsions:
REMARK  status: ('A' for Active; 'I' for Inactive)
REMARK    1  A    between atoms: N2_12  and  N3_13 
REMARK    2  A    between atoms: N3_13  and  C9_14 
REMARK    3  A    between atoms: C12_17  and  S1_18 
REMARK    4  A    between atoms: S1_18  and  N4_21 
ROOT
ATOM      1  N3   11 d         -12.941 206.018 114.633  0.00  0.00    -0.278 N 
ATOM      2  H5   11 d         -11.985 206.114 114.370  0.00  0.00     0.189 HD
ENDROOT
BRANCH   1   3
ATOM      3  N2   11 d         -13.837 205.850 113.676  0.00  0.00    -0.168 NA
ATOM      4  C1   11 d         -13.546 206.186 112.436  0.00  0.00     0.157 A 
ATOM      5  C2   11 d         -14.439 205.946 111.287  0.00  0.00     0.277 A 
ATOM      6  C4   11 d         -12.359 206.866 111.861  0.00  0.00     0.028 A 
ATOM      7  O1   11 d         -15.582 205.371 111.328  0.00  0.00    -0.266 OA
ATOM      8  N1   11 d         -13.861 206.440 110.106  0.00  0.00    -0.321 N 
ATOM      9  C3   11 d         -12.586 207.006 110.489  0.00  0.00     0.048 A 
ATOM     10  H1   11 d         -14.274 206.410 109.116  0.00  0.00     0.169 HD
ATOM     11  C8   11 d         -11.656 207.636 109.655  0.00  0.00     0.032 A 
ATOM     12  C7   11 d         -10.483 208.159 110.226  0.00  0.00     0.021 A 
ATOM     13  C6   11 d         -10.248 208.032 111.611  0.00  0.00     0.011 A 
ATOM     14  C5   11 d         -11.180 207.373 112.436  0.00  0.00     0.035 A 
ATOM     15 Br1   11 d          -8.648 208.779 112.383  0.00  0.00    -0.051 Br
ENDBRANCH   1   3
BRANCH   1  16
ATOM     16  C9   11 d         -13.280 206.043 115.978  0.00  0.00     0.050 A 
ATOM     17  C10  11 d         -13.220 207.266 116.673  0.00  0.00     0.032 A 
ATOM     18  C11  11 d         -13.594 207.341 118.022  0.00  0.00     0.027 A 
ATOM     19  C12  11 d         -14.063 206.197 118.690  0.00  0.00     0.074 A 
ATOM     20  C13  11 d         -14.118 204.971 118.007  0.00  0.00     0.027 A 
ATOM     21  C14  11 d         -13.715 204.889 116.664  0.00  0.00     0.032 A 
BRANCH  19  22
ATOM     22  S1   11 d         -14.608 206.287 120.400  0.00  0.00     0.239 S 
ATOM     23  O2   11 d         -14.820 207.752 120.790  0.00  0.00    -0.206 OA
ATOM     24  O3   11 d         -13.531 205.731 121.336  0.00  0.00    -0.206 OA
BRANCH  22  25
ATOM     25  N4   11 d         -16.099 205.414 120.675  0.00  0.00    -0.225 NA
ATOM     26  H8   11 d         -16.415 205.056 119.719  0.00  0.00     0.136 HD
ATOM     27  H9   11 d         -15.841 204.550 121.249  0.00  0.00     0.136 HD
ENDBRANCH  22  25
ENDBRANCH  19  22
ENDBRANCH   1  16
TORSDOF 4
ENDMDL
MODEL 4
REMARK VINA RESULT:      -8.7      5.101      7.404
REMARK  4 active torsions:
REMARK  status: ('A' for Active; 'I' for Inactive)
REMARK    1  A    between atoms: N2_12  and  N3_13 
REMARK    2  A    between atoms: N3_13  and  C9_14 
REMARK    3  A    between atoms: C12_17  and  S1_18 
REMARK    4  A    between atoms: S1_18  and  N4_21 
ROOT
ATOM      1  N3   11 d         -12.452 206.022 115.618  0.00  0.00    -0.278 N 
ATOM      2  H5   11 d         -11.458 206.079 115.584  0.00  0.00     0.189 HD
ENDROOT
BRANCH   1   3
ATOM      3  N2   11 d         -13.106 205.854 114.482  0.00  0.00    -0.168 NA
ATOM      4  C1   11 d         -12.604 206.323 113.358  0.00  0.00     0.157 A 
ATOM      5  C2   11 d         -13.207 206.100 112.031  0.00  0.00     0.277 A 
ATOM      6  C4   11 d         -11.406 207.160 113.097  0.00  0.00     0.028 A 
ATOM      7  O1   11 d         -14.263 205.418 111.787  0.00  0.00    -0.266 OA
ATOM      8  N1   11 d         -12.455 206.747 111.036  0.00  0.00    -0.321 N 
ATOM      9  C3   11 d         -11.357 207.397 111.721  0.00  0.00     0.048 A 
ATOM     10  H1   11 d         -12.647 206.765 109.981  0.00  0.00     0.169 HD
ATOM     11  C8   11 d         -10.351 208.182 111.149  0.00  0.00     0.032 A 
ATOM     12  C7   11 d          -9.387 208.762 111.992  0.00  0.00     0.021 A 
ATOM     13  C6   11 d          -9.432 208.537 113.384  0.00  0.00     0.011 A 
ATOM     14  C5   11 d         -10.436 207.724 113.944  0.00  0.00     0.035 A 
ATOM     15 Br1   11 d          -8.119 209.362 114.529  0.00  0.00    -0.051 Br
ENDBRANCH   1   3
BRANCH   1  16
ATOM     16  C9   11 d         -13.094 206.099 116.845  0.00  0.00     0.050 A 
ATOM     17  C10  11 d         -13.260 207.361 117.449  0.00  0.00     0.032 A 
ATOM     18  C11  11 d         -13.940 207.486 118.669  0.00  0.00     0.027 A 
ATOM     19  C12  11 d         -14.491 206.351 119.290  0.00  0.00     0.074 A 
ATOM     20  C13  11 d         -14.322 205.089 118.699  0.00  0.00     0.027 A 
ATOM     21  C14  11 d         -13.616 204.959 117.493  0.00  0.00     0.032 A 
BRANCH  19  22
ATOM     22  S1   11 d         -15.420 206.500 120.820  0.00  0.00     0.239 S 
ATOM     23  O2   11 d         -14.534 207.134 121.896  0.00  0.00    -0.206 OA
ATOM     24  O3   11 d         -15.826 205.118 121.339  0.00  0.00    -0.206 OA
BRANCH  22  25
ATOM     25  N4   11 d         -16.861 207.477 120.637  0.00  0.00    -0.225 NA
ATOM     26  H8   11 d         -16.796 208.245 121.379  0.00  0.00     0.136 HD
ATOM     27  H9   11 d         -16.775 207.966 119.690  0.00  0.00     0.136 HD
ENDBRANCH  22  25
ENDBRANCH  19  22
ENDBRANCH   1  16
TORSDOF 4
ENDMDL
MODEL 5
REMARK VINA RESULT:      -8.6      2.790      3.358
REMARK  4 active torsions:
REMARK  status: ('A' for Active; 'I' for Inactive)
REMARK    1  A    between atoms: N2_12  and  N3_13 
REMARK    2  A    between atoms: N3_13  and  C9_14 
REMARK    3  A    between atoms: C12_17  and  S1_18 
REMARK    4  A    between atoms: S1_18  and  N4_21 
ROOT
ATOM      1  N3   11 d         -10.616 207.596 112.626  0.00  0.00    -0.278 N 
ATOM      2  H5   11 d         -11.198 207.107 113.270  0.00  0.00     0.189 HD
ENDROOT
BRANCH   1   3
ATOM      3  N2   11 d         -10.975 207.621 111.355  0.00  0.00    -0.168 NA
ATOM      4  C1   11 d         -12.206 207.301 111.012  0.00  0.00     0.157 A 
ATOM      5  C2   11 d         -12.728 207.395 109.636  0.00  0.00     0.277 A 
ATOM      6  C4   11 d         -13.338 206.776 111.815  0.00  0.00     0.028 A 
ATOM      7  O1   11 d         -12.082 207.811 108.612  0.00  0.00    -0.266 OA
ATOM      8  N1   11 d         -14.063 206.959 109.588  0.00  0.00    -0.321 N 
ATOM      9  C3   11 d         -14.410 206.578 110.940  0.00  0.00     0.048 A 
ATOM     10  H1   11 d         -14.703 206.913 108.728  0.00  0.00     0.169 HD
ATOM     11  C8   11 d         -15.631 206.062 111.385  0.00  0.00     0.032 A 
ATOM     12  C7   11 d         -15.763 205.714 112.741  0.00  0.00     0.021 A 
ATOM     13  C6   11 d         -14.685 205.901 113.631  0.00  0.00     0.011 A 
ATOM     14  C5   11 d         -13.468 206.444 113.175  0.00  0.00     0.035 A 
ATOM     15 Br1   11 d         -14.872 205.393 115.481  0.00  0.00    -0.051 Br
ENDBRANCH   1   3
BRANCH   1  16
ATOM     16  C9   11 d          -9.479 208.238 113.094  0.00  0.00     0.050 A 
ATOM     17  C10  11 d          -9.475 208.746 114.408  0.00  0.00     0.032 A 
ATOM     18  C11  11 d          -8.331 209.364 114.932  0.00  0.00     0.027 A 
ATOM     19  C12  11 d          -7.161 209.458 114.159  0.00  0.00     0.074 A 
ATOM     20  C13  11 d          -7.159 208.961 112.845  0.00  0.00     0.027 A 
ATOM     21  C14  11 d          -8.313 208.368 112.309  0.00  0.00     0.032 A 
BRANCH  19  22
ATOM     22  S1   11 d          -5.666 210.189 114.836  0.00  0.00     0.239 S 
ATOM     23  O2   11 d          -5.147 209.318 115.983  0.00  0.00    -0.206 OA
ATOM     24  O3   11 d          -5.964 211.569 115.428  0.00  0.00    -0.206 OA
BRANCH  22  25
ATOM     25  N4   11 d          -4.399 210.352 113.641  0.00  0.00    -0.225 NA
ATOM     26  H8   11 d          -4.720 211.118 112.968  0.00  0.00     0.136 HD
ATOM     27  H9   11 d          -3.546 210.741 114.155  0.00  0.00     0.136 HD
ENDBRANCH  22  25
ENDBRANCH  19  22
ENDBRANCH   1  16
TORSDOF 4
ENDMDL
MODEL 6
REMARK VINA RESULT:      -8.6      3.465      4.295
REMARK  4 active torsions:
REMARK  status: ('A' for Active; 'I' for Inactive)
REMARK    1  A    between atoms: N2_12  and  N3_13 
REMARK    2  A    between atoms: N3_13  and  C9_14 
REMARK    3  A    between atoms: C12_17  and  S1_18 
REMARK    4  A    between atoms: S1_18  and  N4_21 
ROOT
ATOM      1  N3   11 d          -9.379 208.637 112.761  0.00  0.00    -0.278 N 
ATOM      2  H5   11 d          -9.968 208.902 113.520  0.00  0.00     0.189 HD
ENDROOT
BRANCH   1   3
ATOM      3  N2   11 d          -9.945 208.353 111.602  0.00  0.00    -0.168 NA
ATOM      4  C1   11 d         -11.088 207.700 111.570  0.00  0.00     0.157 A 
ATOM      5  C2   11 d         -11.846 207.425 110.335  0.00  0.00     0.277 A 
ATOM      6  C4   11 d         -11.887 207.076 112.654  0.00  0.00     0.028 A 
ATOM      7  O1   11 d         -11.519 207.792 109.153  0.00  0.00    -0.266 OA
ATOM      8  N1   11 d         -13.007 206.689 110.626  0.00  0.00    -0.321 N 
ATOM      9  C3   11 d         -13.003 206.483 112.058  0.00  0.00     0.048 A 
ATOM     10  H1   11 d         -13.750 206.343 109.934  0.00  0.00     0.169 HD
ATOM     11  C8   11 d         -13.951 205.784 112.813  0.00  0.00     0.032 A 
ATOM     12  C7   11 d         -13.751 205.660 114.200  0.00  0.00     0.021 A 
ATOM     13  C6   11 d         -12.623 206.247 114.811  0.00  0.00     0.011 A 
ATOM     14  C5   11 d         -11.690 206.970 114.043  0.00  0.00     0.035 A 
ATOM     15 Br1   11 d         -12.349 206.045 116.708  0.00  0.00    -0.051 Br
ENDBRANCH   1   3
BRANCH   1  16
ATOM     16  C9   11 d          -8.005 208.600 112.951  0.00  0.00     0.050 A 
ATOM     17  C10  11 d          -7.170 208.361 111.842  0.00  0.00     0.032 A 
ATOM     18  C11  11 d          -5.775 208.358 111.984  0.00  0.00     0.027 A 
ATOM     19  C12  11 d          -5.192 208.622 113.236  0.00  0.00     0.074 A 
ATOM     20  C13  11 d          -6.017 208.853 114.348  0.00  0.00     0.027 A 
ATOM     21  C14  11 d          -7.414 208.827 114.212  0.00  0.00     0.032 A 
BRANCH  19  22
ATOM     22  S1   11 d          -3.406 208.685 113.424  0.00  0.00     0.239 S 
ATOM     23  O2   11 d          -3.055 208.822 114.907  0.00  0.00    -0.206 OA
ATOM     24  O3   11 d          -2.835 209.918 112.718  0.00  0.00    -0.206 OA
BRANCH  22  25
ATOM     25  N4   11 d          -2.615 207.258 112.792  0.00  0.00    -0.225 NA
ATOM     26  H8   11 d          -3.281 206.442 112.977  0.00  0.00     0.136 HD
ATOM     27  H9   11 d          -2.576 207.379 111.731  0.00  0.00     0.136 HD
ENDBRANCH  22  25
ENDBRANCH  19  22
ENDBRANCH   1  16
TORSDOF 4
ENDMDL
MODEL 7
REMARK VINA RESULT:      -8.3      3.731      7.007
REMARK  4 active torsions:
REMARK  status: ('A' for Active; 'I' for Inactive)
REMARK    1  A    between atoms: N2_12  and  N3_13 
REMARK    2  A    between atoms: N3_13  and  C9_14 
REMARK    3  A    between atoms: C12_17  and  S1_18 
REMARK    4  A    between atoms: S1_18  and  N4_21 
ROOT
ATOM      1  N3   11 d         -12.904 208.222 115.964  0.00  0.00    -0.278 N 
ATOM      2  H5   11 d         -13.572 208.802 115.505  0.00  0.00     0.189 HD
ENDROOT
BRANCH   1   3
ATOM      3  N2   11 d         -11.629 208.377 115.660  0.00  0.00    -0.168 NA
ATOM      4  C1   11 d         -11.219 208.188 114.422  0.00  0.00     0.157 A 
ATOM      5  C2   11 d          -9.838 208.434 113.965  0.00  0.00     0.277 A 
ATOM      6  C4   11 d         -11.937 207.695 113.220  0.00  0.00     0.028 A 
ATOM      7  O1   11 d          -8.874 208.875 114.682  0.00  0.00    -0.266 OA
ATOM      8  N1   11 d          -9.710 208.114 112.603  0.00  0.00    -0.321 N 
ATOM      9  C3   11 d         -11.014 207.656 112.172  0.00  0.00     0.048 A 
ATOM     10  H1   11 d          -8.828 208.189 111.996  0.00  0.00     0.169 HD
ATOM     11  C8   11 d         -11.373 207.209 110.897  0.00  0.00     0.032 A 
ATOM     12  C7   11 d         -12.690 206.767 110.683  0.00  0.00     0.021 A 
ATOM     13  C6   11 d         -13.629 206.793 111.736  0.00  0.00     0.011 A 
ATOM     14  C5   11 d         -13.261 207.269 113.009  0.00  0.00     0.035 A 
ATOM     15 Br1   11 d         -15.423 206.157 111.435  0.00  0.00    -0.051 Br
ENDBRANCH   1   3
BRANCH   1  16
ATOM     16  C9   11 d         -13.341 207.303 116.907  0.00  0.00     0.050 A 
ATOM     17  C10  11 d         -13.489 207.718 118.245  0.00  0.00     0.032 A 
ATOM     18  C11  11 d         -13.969 206.831 119.220  0.00  0.00     0.027 A 
ATOM     19  C12  11 d         -14.334 205.521 118.864  0.00  0.00     0.074 A 
ATOM     20  C13  11 d         -14.181 205.097 117.535  0.00  0.00     0.027 A 
ATOM     21  C14  11 d         -13.674 205.975 116.564  0.00  0.00     0.032 A 
BRANCH  19  22
ATOM     22  S1   11 d         -15.009 204.390 120.087  0.00  0.00     0.239 S 
ATOM     23  O2   11 d         -15.404 203.078 119.405  0.00  0.00    -0.206 OA
ATOM     24  O3   11 d         -16.285 204.968 120.706  0.00  0.00    -0.206 OA
BRANCH  22  25
ATOM     25  N4   11 d         -13.874 204.034 121.370  0.00  0.00    -0.225 NA
ATOM     26  H8   11 d         -14.017 204.789 122.113  0.00  0.00     0.136 HD
ATOM     27  H9   11 d         -14.195 203.114 121.810  0.00  0.00     0.136 HD
ENDBRANCH  22  25
ENDBRANCH  19  22
ENDBRANCH   1  16
TORSDOF 4
ENDMDL
MODEL 8
REMARK VINA RESULT:      -8.2      3.902      5.848
REMARK  4 active torsions:
REMARK  status: ('A' for Active; 'I' for Inactive)
REMARK    1  A    between atoms: N2_12  and  N3_13 
REMARK    2  A    between atoms: N3_13  and  C9_14 
REMARK    3  A    between atoms: C12_17  and  S1_18 
REMARK    4  A    between atoms: S1_18  and  N4_21 
ROOT
ATOM      1  N3   11 d         -10.259 209.087 115.657  0.00  0.00    -0.278 N 
ATOM      2  H5   11 d         -11.132 209.545 115.515  0.00  0.00     0.189 HD
ENDROOT
BRANCH   1   3
ATOM      3  N2   11 d          -9.341 209.190 114.712  0.00  0.00    -0.168 NA
ATOM      4  C1   11 d          -9.605 208.775 113.490  0.00  0.00     0.157 A 
ATOM      5  C2   11 d          -8.686 208.938 112.348  0.00  0.00     0.277 A 
ATOM      6  C4   11 d         -10.783 208.064 112.933  0.00  0.00     0.028 A 
ATOM      7  O1   11 d          -7.541 209.510 112.378  0.00  0.00    -0.266 OA
ATOM      8  N1   11 d          -9.239 208.371 111.188  0.00  0.00    -0.321 N 
ATOM      9  C3   11 d         -10.526 207.835 111.578  0.00  0.00     0.048 A 
ATOM     10  H1   11 d          -8.805 208.336 110.208  0.00  0.00     0.169 HD
ATOM     11  C8   11 d         -11.439 207.155 110.766  0.00  0.00     0.032 A 
ATOM     12  C7   11 d         -12.628 206.675 111.342  0.00  0.00     0.021 A 
ATOM     13  C6   11 d         -12.893 206.892 112.711  0.00  0.00     0.011 A 
ATOM     14  C5   11 d         -11.977 207.599 113.512  0.00  0.00     0.035 A 
ATOM     15 Br1   11 d         -14.514 206.202 113.493  0.00  0.00    -0.051 Br
ENDBRANCH   1   3
BRANCH   1  16
ATOM     16  C9   11 d         -10.043 208.389 116.836  0.00  0.00     0.050 A 
ATOM     17  C10  11 d         -11.153 207.901 117.552  0.00  0.00     0.032 A 
ATOM     18  C11  11 d         -10.976 207.154 118.725  0.00  0.00     0.027 A 
ATOM     19  C12  11 d          -9.681 206.860 119.186  0.00  0.00     0.074 A 
ATOM     20  C13  11 d          -8.569 207.350 118.483  0.00  0.00     0.027 A 
ATOM     21  C14  11 d          -8.746 208.122 117.324  0.00  0.00     0.032 A 
BRANCH  19  22
ATOM     22  S1   11 d          -9.433 205.851 120.652  0.00  0.00     0.239 S 
ATOM     23  O2   11 d          -9.169 206.758 121.856  0.00  0.00    -0.206 OA
ATOM     24  O3   11 d          -8.198 204.961 120.489  0.00  0.00    -0.206 OA
BRANCH  22  25
ATOM     25  N4   11 d         -10.814 204.837 121.009  0.00  0.00    -0.225 NA
ATOM     26  H8   11 d         -11.090 204.375 120.085  0.00  0.00     0.136 HD
ATOM     27  H9   11 d         -10.457 204.054 121.643  0.00  0.00     0.136 HD
ENDBRANCH  22  25
ENDBRANCH  19  22
ENDBRANCH   1  16
TORSDOF 4
ENDMDL
MODEL 9
REMARK VINA RESULT:      -8.1      3.921      4.969
REMARK  4 active torsions:
REMARK  status: ('A' for Active; 'I' for Inactive)
REMARK    1  A    between atoms: N2_12  and  N3_13 
REMARK    2  A    between atoms: N3_13  and  C9_14 
REMARK    3  A    between atoms: C12_17  and  S1_18 
REMARK    4  A    between atoms: S1_18  and  N4_21 
ROOT
ATOM      1  N3   11 d         -12.987 208.089 116.302  0.00  0.00    -0.278 N 
ATOM      2  H5   11 d         -12.854 209.009 115.943  0.00  0.00     0.189 HD
ENDROOT
BRANCH   1   3
ATOM      3  N2   11 d         -14.014 207.389 115.855  0.00  0.00    -0.168 NA
ATOM      4  C1   11 d         -13.982 206.871 114.644  0.00  0.00     0.157 A 
ATOM      5  C2   11 d         -15.032 205.993 114.095  0.00  0.00     0.277 A 
ATOM      6  C4   11 d         -12.990 207.011 113.549  0.00  0.00     0.028 A 
ATOM      7  O1   11 d         -16.085 205.602 114.710  0.00  0.00    -0.266 OA
ATOM      8  N1   11 d         -14.724 205.628 112.774  0.00  0.00    -0.321 N 
ATOM      9  C3   11 d         -13.466 206.273 112.462  0.00  0.00     0.048 A 
ATOM     10  H1   11 d         -15.298 205.000 112.121  0.00  0.00     0.169 HD
ATOM     11  C8   11 d         -12.767 206.219 111.252  0.00  0.00     0.032 A 
ATOM     12  C7   11 d         -11.572 206.950 111.130  0.00  0.00     0.021 A 
ATOM     13  C6   11 d         -11.087 207.706 112.218  0.00  0.00     0.011 A 
ATOM     14  C5   11 d         -11.787 207.731 113.439  0.00  0.00     0.035 A 
ATOM     15 Br1   11 d          -9.462 208.724 112.026  0.00  0.00    -0.051 Br
ENDBRANCH   1   3
BRANCH   1  16
ATOM     16  C9   11 d         -12.085 207.586 117.227  0.00  0.00     0.050 A 
ATOM     17  C10  11 d         -10.857 208.250 117.413  0.00  0.00     0.032 A 
ATOM     18  C11  11 d          -9.936 207.797 118.369  0.00  0.00     0.027 A 
ATOM     19  C12  11 d         -10.243 206.687 119.174  0.00  0.00     0.074 A 
ATOM     20  C13  11 d         -11.461 206.013 118.990  0.00  0.00     0.027 A 
ATOM     21  C14  11 d         -12.371 206.449 118.013  0.00  0.00     0.032 A 
BRANCH  19  22
ATOM     22  S1   11 d          -9.103 206.130 120.447  0.00  0.00     0.239 S 
ATOM     23  O2   11 d          -7.742 205.830 119.816  0.00  0.00    -0.206 OA
ATOM     24  O3   11 d          -9.597 204.824 121.076  0.00  0.00    -0.206 OA
BRANCH  22  25
ATOM     25  N4   11 d          -8.883 207.317 121.714  0.00  0.00    -0.225 NA
ATOM     26  H8   11 d          -9.864 207.617 122.015  0.00  0.00     0.136 HD
ATOM     27  H9   11 d          -8.460 206.795 122.546  0.00  0.00     0.136 HD
ENDBRANCH  22  25
ENDBRANCH  19  22
ENDBRANCH   1  16
TORSDOF 4
ENDMDL
MODEL 10
REMARK VINA RESULT:      -7.7      4.533      7.642
REMARK  4 active torsions:
REMARK  status: ('A' for Active; 'I' for Inactive)
REMARK    1  A    between atoms: N2_12  and  N3_13 
REMARK    2  A    between atoms: N3_13  and  C9_14 
REMARK    3  A    between atoms: C12_17  and  S1_18 
REMARK    4  A    between atoms: S1_18  and  N4_21 
ROOT
ATOM      1  N3   11 d         -12.158 208.456 115.893  0.00  0.00    -0.278 N 
ATOM      2  H5   11 d         -11.811 209.389 115.911  0.00  0.00     0.189 HD
ENDROOT
BRANCH   1   3
ATOM      3  N2   11 d         -12.028 207.721 116.983  0.00  0.00    -0.168 NA
ATOM      4  C1   11 d         -10.839 207.549 117.523  0.00  0.00     0.157 A 
ATOM      5  C2   11 d         -10.606 206.832 118.791  0.00  0.00     0.277 A 
ATOM      6  C4   11 d          -9.488 207.959 117.063  0.00  0.00     0.028 A 
ATOM      7  O1   11 d         -11.504 206.309 119.537  0.00  0.00    -0.266 OA
ATOM      8  N1   11 d          -9.232 206.793 119.086  0.00  0.00    -0.321 N 
ATOM      9  C3   11 d          -8.569 207.488 118.003  0.00  0.00     0.048 A 
ATOM     10  H1   11 d          -8.761 206.342 119.938  0.00  0.00     0.169 HD
ATOM     11  C8   11 d          -7.194 207.690 117.847  0.00  0.00     0.032 A 
ATOM     12  C7   11 d          -6.737 208.362 116.700  0.00  0.00     0.021 A 
ATOM     13  C6   11 d          -7.656 208.833 115.739  0.00  0.00     0.011 A 
ATOM     14  C5   11 d          -9.039 208.645 115.920  0.00  0.00     0.035 A 
ATOM     15 Br1   11 d          -7.012 209.727 114.157  0.00  0.00    -0.051 Br
ENDBRANCH   1   3
BRANCH   1  16
ATOM     16  C9   11 d         -12.775 207.984 114.744  0.00  0.00     0.050 A 
ATOM     17  C10  11 d         -11.992 207.341 113.765  0.00  0.00     0.032 A 
ATOM     18  C11  11 d         -12.584 206.814 112.608  0.00  0.00     0.027 A 
ATOM     19  C12  11 d         -13.975 206.896 112.426  0.00  0.00     0.074 A 
ATOM     20  C13  11 d         -14.761 207.543 113.393  0.00  0.00     0.027 A 
ATOM     21  C14  11 d         -14.166 208.098 114.537  0.00  0.00     0.032 A 
BRANCH  19  22
ATOM     22  S1   11 d         -14.758 206.170 110.982  0.00  0.00     0.239 S 
ATOM     23  O2   11 d         -14.500 204.661 110.966  0.00  0.00    -0.206 OA
ATOM     24  O3   11 d         -14.147 206.737 109.697  0.00  0.00    -0.206 OA
BRANCH  22  25
ATOM     25  N4   11 d         -16.486 206.442 110.949  0.00  0.00    -0.225 NA
ATOM     26  H8   11 d         -16.622 207.460 110.654  0.00  0.00     0.136 HD
ATOM     27  H9   11 d         -16.871 205.844 110.151  0.00  0.00     0.136 HD
ENDBRANCH  22  25
ENDBRANCH  19  22
ENDBRANCH   1  16
TORSDOF 4
ENDMDL
