MODEL 1
REMARK VINA RESULT:      -8.3      0.000      0.000
REMARK  4 active torsions:
REMARK  status: ('A' for Active; 'I' for Inactive)
REMARK    1  A    between atoms: C1_1  and  C2_2 
REMARK       I    between atoms: C1_1  and  N2_12 
REMARK    2  A    between atoms: C4_4  and  N1_5 
REMARK    3  A    between atoms: N2_12  and  N3_13 
REMARK    4  A    between atoms: C8_14  and  C9_15 
ROOT
ATOM      1  C1   11 d         -11.692 207.032 112.373  0.00  0.00     0.271 C 
ATOM      2  O3   11 d         -11.324 206.287 113.351  0.00  0.00    -0.266 OA
ATOM      3  N2   11 d         -10.780 208.016 111.882  0.00  0.00    -0.243 N 
ATOM      4  H5   11 d         -11.024 208.668 111.065  0.00  0.00     0.192 HD
ENDROOT
BRANCH   1   5
ATOM      5  C2   11 d         -13.059 206.834 111.794  0.00  0.00     0.036 A 
ATOM      6  C3   11 d         -14.130 206.488 112.650  0.00  0.00     0.053 A 
ATOM      7  C4   11 d         -15.444 206.293 112.160  0.00  0.00     0.103 A 
ATOM      8  C5   11 d         -15.668 206.453 110.774  0.00  0.00     0.036 A 
ATOM      9  C6   11 d         -14.620 206.801 109.915  0.00  0.00     0.003 A 
ATOM     10  C7   11 d         -13.327 206.994 110.417  0.00  0.00     0.017 A 
BRANCH   7  11
ATOM     11  N1   11 d         -16.496 205.944 113.014  0.00  0.00    -0.116 N 
ATOM     12  O1   11 d         -17.541 205.734 112.597  0.00  0.00    -0.532 OA
ATOM     13  O2   11 d         -16.291 205.733 114.242  0.00  0.00    -0.532 OA
ENDBRANCH   7  11
ENDBRANCH   1   5
BRANCH   3  14
ATOM     14  N3   11 d          -9.526 208.111 112.504  0.00  0.00    -0.181 NA
ATOM     15  C8   11 d          -9.050 209.310 112.735  0.00  0.00     0.175 C 
BRANCH  15  16
ATOM     16  C9   11 d          -7.736 209.476 113.385  0.00  0.00     0.094 A 
ATOM     17  O4   11 d          -7.540 210.191 114.466  0.00  0.00    -0.314 OA
ATOM     18  C10  11 d          -6.264 210.137 114.755  0.00  0.00     0.050 A 
ATOM     19  C11  11 d          -5.597 209.304 113.872  0.00  0.00     0.035 A 
ATOM     20  C13  11 d          -5.703 210.684 116.027  0.00  0.00     0.076 C 
ATOM     21  C12  11 d          -6.552 208.894 112.962  0.00  0.00     0.041 A 
ENDBRANCH  15  16
ENDBRANCH   3  14
TORSDOF 4
ENDMDL
MODEL 2
REMARK VINA RESULT:      -7.9      2.252      8.923
REMARK  4 active torsions:
REMARK  status: ('A' for Active; 'I' for Inactive)
REMARK    1  A    between atoms: C1_1  and  C2_2 
REMARK       I    between atoms: C1_1  and  N2_12 
REMARK    2  A    between atoms: C4_4  and  N1_5 
REMARK    3  A    between atoms: N2_12  and  N3_13 
REMARK    4  A    between atoms: C8_14  and  C9_15 
ROOT
ATOM      1  C1   11 d          -9.229 208.199 112.662  0.00  0.00     0.271 C 
ATOM      2  O3   11 d          -9.458 208.489 111.433  0.00  0.00    -0.266 OA
ATOM      3  N2   11 d         -10.138 207.333 113.343  0.00  0.00    -0.243 N 
ATOM      4  H5   11 d         -10.002 207.050 114.369  0.00  0.00     0.192 HD
ENDROOT
BRANCH   1   5
ATOM      5  C2   11 d          -8.017 208.783 113.323  0.00  0.00     0.036 A 
ATOM      6  C3   11 d          -6.738 208.510 112.786  0.00  0.00     0.053 A 
ATOM      7  C4   11 d          -5.558 209.038 113.364  0.00  0.00     0.103 A 
ATOM      8  C5   11 d          -5.687 209.856 114.509  0.00  0.00     0.036 A 
ATOM      9  C6   11 d          -6.946 210.141 115.048  0.00  0.00     0.003 A 
ATOM     10  C7   11 d          -8.102 209.613 114.461  0.00  0.00     0.017 A 
BRANCH   7  11
ATOM     11  N1   11 d          -4.296 208.757 112.830  0.00  0.00    -0.116 N 
ATOM     12  O1   11 d          -4.183 208.046 111.941  0.00  0.00    -0.532 OA
ATOM     13  O2   11 d          -3.270 209.374 113.233  0.00  0.00    -0.532 OA
ENDBRANCH   7  11
ENDBRANCH   1   5
BRANCH   3  14
ATOM     14  N3   11 d         -11.240 206.848 112.622  0.00  0.00    -0.181 NA
ATOM     15  C8   11 d         -12.408 207.394 112.855  0.00  0.00     0.175 C 
BRANCH  15  16
ATOM     16  C9   11 d         -13.605 206.925 112.130  0.00  0.00     0.094 A 
ATOM     17  O4   11 d         -14.717 206.556 112.718  0.00  0.00    -0.314 OA
ATOM     18  C10  11 d         -15.557 206.183 111.785  0.00  0.00     0.050 A 
ATOM     19  C11  11 d         -15.008 206.373 110.527  0.00  0.00     0.035 A 
ATOM     20  C13  11 d         -16.990 205.872 112.070  0.00  0.00     0.076 C 
ATOM     21  C12  11 d         -13.725 206.832 110.753  0.00  0.00     0.041 A 
ENDBRANCH  15  16
ENDBRANCH   3  14
TORSDOF 4
ENDMDL
MODEL 3
REMARK VINA RESULT:      -7.7      1.989      8.561
REMARK  4 active torsions:
REMARK  status: ('A' for Active; 'I' for Inactive)
REMARK    1  A    between atoms: C1_1  and  C2_2 
REMARK       I    between atoms: C1_1  and  N2_12 
REMARK    2  A    between atoms: C4_4  and  N1_5 
REMARK    3  A    between atoms: N2_12  and  N3_13 
REMARK    4  A    between atoms: C8_14  and  C9_15 
ROOT
ATOM      1  C1   11 d          -9.604 208.431 112.403  0.00  0.00     0.271 C 
ATOM      2  O3   11 d          -9.988 209.027 111.334  0.00  0.00    -0.266 OA
ATOM      3  N2   11 d         -10.571 207.714 113.172  0.00  0.00    -0.243 N 
ATOM      4  H5   11 d         -10.315 207.192 114.074  0.00  0.00     0.192 HD
ENDROOT
BRANCH   1   5
ATOM      5  C2   11 d          -8.159 208.514 112.792  0.00  0.00     0.036 A 
ATOM      6  C3   11 d          -7.820 208.778 114.139  0.00  0.00     0.053 A 
ATOM      7  C4   11 d          -6.472 208.863 114.566  0.00  0.00     0.103 A 
ATOM      8  C5   11 d          -5.457 208.676 113.602  0.00  0.00     0.036 A 
ATOM      9  C6   11 d          -5.776 208.408 112.267  0.00  0.00     0.003 A 
ATOM     10  C7   11 d          -7.114 208.324 111.863  0.00  0.00     0.017 A 
BRANCH   7  11
ATOM     11  N1   11 d          -6.146 209.131 115.900  0.00  0.00    -0.116 N 
ATOM     12  O1   11 d          -6.800 208.735 116.752  0.00  0.00    -0.532 OA
ATOM     13  O2   11 d          -5.063 209.706 116.199  0.00  0.00    -0.532 OA
ENDBRANCH   7  11
ENDBRANCH   1   5
BRANCH   3  14
ATOM     14  N3   11 d         -11.896 207.707 112.710  0.00  0.00    -0.181 NA
ATOM     15  C8   11 d         -12.332 206.618 112.127  0.00  0.00     0.175 C 
BRANCH  15  16
ATOM     16  C9   11 d         -13.715 206.550 111.618  0.00  0.00     0.094 A 
ATOM     17  O4   11 d         -14.720 206.054 112.297  0.00  0.00    -0.314 OA
ATOM     18  C10  11 d         -15.789 206.132 111.544  0.00  0.00     0.050 A 
ATOM     19  C11  11 d         -15.498 206.762 110.345  0.00  0.00     0.035 A 
ATOM     20  C13  11 d         -17.159 205.829 112.057  0.00  0.00     0.076 C 
ATOM     21  C12  11 d         -14.140 207.010 110.382  0.00  0.00     0.041 A 
ENDBRANCH  15  16
ENDBRANCH   3  14
TORSDOF 4
ENDMDL
MODEL 4
REMARK VINA RESULT:      -7.4      4.264      7.735
REMARK  4 active torsions:
REMARK  status: ('A' for Active; 'I' for Inactive)
REMARK    1  A    between atoms: C1_1  and  C2_2 
REMARK       I    between atoms: C1_1  and  N2_12 
REMARK    2  A    between atoms: C4_4  and  N1_5 
REMARK    3  A    between atoms: N2_12  and  N3_13 
REMARK    4  A    between atoms: C8_14  and  C9_15 
ROOT
ATOM      1  C1   11 d         -12.152 206.123 113.895  0.00  0.00     0.271 C 
ATOM      2  O3   11 d         -13.352 205.735 113.657  0.00  0.00    -0.266 OA
ATOM      3  N2   11 d         -11.560 205.783 115.150  0.00  0.00    -0.243 N 
ATOM      4  H5   11 d         -10.560 206.074 115.410  0.00  0.00     0.192 HD
ENDROOT
BRANCH   1   5
ATOM      5  C2   11 d         -11.431 206.912 112.845  0.00  0.00     0.036 A 
ATOM      6  C3   11 d         -10.371 207.766 113.229  0.00  0.00     0.053 A 
ATOM      7  C4   11 d          -9.650 208.532 112.280  0.00  0.00     0.103 A 
ATOM      8  C5   11 d         -10.018 208.424 110.920  0.00  0.00     0.036 A 
ATOM      9  C6   11 d         -11.061 207.579 110.525  0.00  0.00     0.003 A 
ATOM     10  C7   11 d         -11.760 206.826 111.476  0.00  0.00     0.017 A 
BRANCH   7  11
ATOM     11  N1   11 d          -8.607 209.379 112.669  0.00  0.00    -0.116 N 
ATOM     12  O1   11 d          -8.773 210.180 113.470  0.00  0.00    -0.532 OA
ATOM     13  O2   11 d          -7.433 209.201 112.240  0.00  0.00    -0.532 OA
ENDBRANCH   7  11
ENDBRANCH   1   5
BRANCH   3  14
ATOM     14  N3   11 d         -12.332 205.041 116.056  0.00  0.00    -0.181 NA
ATOM     15  C8   11 d         -13.105 205.702 116.881  0.00  0.00     0.175 C 
BRANCH  15  16
ATOM     16  C9   11 d         -13.940 204.978 117.860  0.00  0.00     0.094 A 
ATOM     17  O4   11 d         -14.136 205.381 119.092  0.00  0.00    -0.314 OA
ATOM     18  C10  11 d         -14.904 204.498 119.682  0.00  0.00     0.050 A 
ATOM     19  C11  11 d         -15.285 203.507 118.792  0.00  0.00     0.035 A 
ATOM     20  C13  11 d         -15.487 204.720 121.040  0.00  0.00     0.076 C 
ATOM     21  C12  11 d         -14.635 203.805 117.611  0.00  0.00     0.041 A 
ENDBRANCH  15  16
ENDBRANCH   3  14
TORSDOF 4
ENDMDL
MODEL 5
REMARK VINA RESULT:      -7.3      4.588      7.957
REMARK  4 active torsions:
REMARK  status: ('A' for Active; 'I' for Inactive)
REMARK    1  A    between atoms: C1_1  and  C2_2 
REMARK       I    between atoms: C1_1  and  N2_12 
REMARK    2  A    between atoms: C4_4  and  N1_5 
REMARK    3  A    between atoms: N2_12  and  N3_13 
REMARK    4  A    between atoms: C8_14  and  C9_15 
ROOT
ATOM      1  C1   11 d         -15.026 205.782 114.170  0.00  0.00     0.271 C 
ATOM      2  O3   11 d         -16.276 205.668 114.435  0.00  0.00    -0.266 OA
ATOM      3  N2   11 d         -14.081 205.553 115.217  0.00  0.00    -0.243 N 
ATOM      4  H5   11 d         -13.022 205.629 115.061  0.00  0.00     0.192 HD
ENDROOT
BRANCH   1   5
ATOM      5  C2   11 d         -14.618 206.150 112.776  0.00  0.00     0.036 A 
ATOM      6  C3   11 d         -13.279 206.529 112.525  0.00  0.00     0.053 A 
ATOM      7  C4   11 d         -12.835 206.881 111.227  0.00  0.00     0.103 A 
ATOM      8  C5   11 d         -13.773 206.846 110.171  0.00  0.00     0.036 A 
ATOM      9  C6   11 d         -15.100 206.468 110.403  0.00  0.00     0.003 A 
ATOM     10  C7   11 d         -15.520 206.118 111.692  0.00  0.00     0.017 A 
BRANCH   7  11
ATOM     11  N1   11 d         -11.510 207.261 110.988  0.00  0.00    -0.116 N 
ATOM     12  O1   11 d         -11.116 207.367 109.919  0.00  0.00    -0.532 OA
ATOM     13  O2   11 d         -10.757 207.616 111.938  0.00  0.00    -0.532 OA
ENDBRANCH   7  11
ENDBRANCH   1   5
BRANCH   3  14
ATOM     14  N3   11 d         -14.580 205.215 116.484  0.00  0.00    -0.181 NA
ATOM     15  C8   11 d         -14.765 203.946 116.748  0.00  0.00     0.175 C 
BRANCH  15  16
ATOM     16  C9   11 d         -15.290 203.528 118.062  0.00  0.00     0.094 A 
ATOM     17  O4   11 d         -15.038 204.158 119.184  0.00  0.00    -0.314 OA
ATOM     18  C10  11 d         -15.640 203.510 120.149  0.00  0.00     0.050 A 
ATOM     19  C11  11 d         -16.374 202.449 119.644  0.00  0.00     0.035 A 
ATOM     20  C13  11 d         -15.726 204.041 121.543  0.00  0.00     0.076 C 
ATOM     21  C12  11 d         -16.124 202.444 118.286  0.00  0.00     0.041 A 
ENDBRANCH  15  16
ENDBRANCH   3  14
TORSDOF 4
ENDMDL
MODEL 6
REMARK VINA RESULT:      -7.2      2.933      3.206
REMARK  4 active torsions:
REMARK  status: ('A' for Active; 'I' for Inactive)
REMARK    1  A    between atoms: C1_1  and  C2_2 
REMARK       I    between atoms: C1_1  and  N2_12 
REMARK    2  A    between atoms: C4_4  and  N1_5 
REMARK    3  A    between atoms: N2_12  and  N3_13 
REMARK    4  A    between atoms: C8_14  and  C9_15 
ROOT
ATOM      1  C1   11 d         -12.152 206.841 113.337  0.00  0.00     0.271 C 
ATOM      2  O3   11 d         -10.936 206.969 112.947  0.00  0.00    -0.266 OA
ATOM      3  N2   11 d         -12.417 206.765 114.738  0.00  0.00    -0.243 N 
ATOM      4  H5   11 d         -13.411 206.660 115.130  0.00  0.00     0.192 HD
ENDROOT
BRANCH   1   5
ATOM      5  C2   11 d         -13.235 206.778 112.303  0.00  0.00     0.036 A 
ATOM      6  C3   11 d         -14.576 206.610 112.716  0.00  0.00     0.053 A 
ATOM      7  C4   11 d         -15.642 206.549 111.784  0.00  0.00     0.103 A 
ATOM      8  C5   11 d         -15.331 206.660 110.410  0.00  0.00     0.036 A 
ATOM      9  C6   11 d         -14.008 206.833 109.987  0.00  0.00     0.003 A 
ATOM     10  C7   11 d         -12.968 206.895 110.922  0.00  0.00     0.017 A 
BRANCH   7  11
ATOM     11  N1   11 d         -16.965 206.376 112.201  0.00  0.00    -0.116 N 
ATOM     12  O1   11 d         -17.835 206.747 111.555  0.00  0.00    -0.532 OA
ATOM     13  O2   11 d         -17.237 205.700 113.233  0.00  0.00    -0.532 OA
ENDBRANCH   7  11
ENDBRANCH   1   5
BRANCH   3  14
ATOM     14  N3   11 d         -11.323 206.833 115.614  0.00  0.00    -0.181 NA
ATOM     15  C8   11 d         -11.203 207.905 116.357  0.00  0.00     0.175 C 
BRANCH  15  16
ATOM     16  C9   11 d         -10.072 208.038 117.295  0.00  0.00     0.094 A 
ATOM     17  O4   11 d          -8.815 207.902 116.949  0.00  0.00    -0.314 OA
ATOM     18  C10  11 d          -8.085 208.062 118.024  0.00  0.00     0.050 A 
ATOM     19  C11  11 d          -8.880 208.381 119.113  0.00  0.00     0.035 A 
ATOM     20  C13  11 d          -6.595 208.157 117.978  0.00  0.00     0.076 C 
ATOM     21  C12  11 d         -10.178 208.338 118.644  0.00  0.00     0.041 A 
ENDBRANCH  15  16
ENDBRANCH   3  14
TORSDOF 4
ENDMDL
MODEL 7
REMARK VINA RESULT:      -7.0      5.326      8.139
REMARK  4 active torsions:
REMARK  status: ('A' for Active; 'I' for Inactive)
REMARK    1  A    between atoms: C1_1  and  C2_2 
REMARK       I    between atoms: C1_1  and  N2_12 
REMARK    2  A    between atoms: C4_4  and  N1_5 
REMARK    3  A    between atoms: N2_12  and  N3_13 
REMARK    4  A    between atoms: C8_14  and  C9_15 
ROOT
ATOM      1  C1   11 d         -13.666 205.937 115.464  0.00  0.00     0.271 C 
ATOM      2  O3   11 d         -14.815 206.450 115.712  0.00  0.00    -0.266 OA
ATOM      3  N2   11 d         -13.069 205.087 116.444  0.00  0.00    -0.243 N 
ATOM      4  H5   11 d         -12.112 204.624 116.297  0.00  0.00     0.192 HD
ENDROOT
BRANCH   1   5
ATOM      5  C2   11 d         -13.005 206.255 114.157  0.00  0.00     0.036 A 
ATOM      6  C3   11 d         -13.771 206.219 112.968  0.00  0.00     0.053 A 
ATOM      7  C4   11 d         -13.202 206.515 111.705  0.00  0.00     0.103 A 
ATOM      8  C5   11 d         -11.831 206.853 111.656  0.00  0.00     0.036 A 
ATOM      9  C6   11 d         -11.062 206.898 112.824  0.00  0.00     0.003 A 
ATOM     10  C7   11 d         -11.641 206.607 114.065  0.00  0.00     0.017 A 
BRANCH   7  11
ATOM     11  N1   11 d         -13.965 206.471 110.534  0.00  0.00    -0.116 N 
ATOM     12  O1   11 d         -14.907 205.823 110.475  0.00  0.00    -0.532 OA
ATOM     13  O2   11 d         -13.706 207.234 109.562  0.00  0.00    -0.532 OA
ENDBRANCH   7  11
ENDBRANCH   1   5
BRANCH   3  14
ATOM     14  N3   11 d         -13.781 204.862 117.632  0.00  0.00    -0.181 NA
ATOM     15  C8   11 d         -14.520 203.783 117.704  0.00  0.00     0.175 C 
BRANCH  15  16
ATOM     16  C9   11 d         -15.294 203.492 118.927  0.00  0.00     0.094 A 
ATOM     17  O4   11 d         -15.034 204.019 120.099  0.00  0.00    -0.314 OA
ATOM     18  C10  11 d         -15.897 203.531 120.955  0.00  0.00     0.050 A 
ATOM     19  C11  11 d         -16.805 202.701 120.318  0.00  0.00     0.035 A 
ATOM     20  C13  11 d         -16.020 204.044 122.353  0.00  0.00     0.076 C 
ATOM     21  C12  11 d         -16.396 202.654 119.000  0.00  0.00     0.041 A 
ENDBRANCH  15  16
ENDBRANCH   3  14
TORSDOF 4
ENDMDL
MODEL 8
REMARK VINA RESULT:      -6.9      2.182      2.847
REMARK  4 active torsions:
REMARK  status: ('A' for Active; 'I' for Inactive)
REMARK    1  A    between atoms: C1_1  and  C2_2 
REMARK       I    between atoms: C1_1  and  N2_12 
REMARK    2  A    between atoms: C4_4  and  N1_5 
REMARK    3  A    between atoms: N2_12  and  N3_13 
REMARK    4  A    between atoms: C8_14  and  C9_15 
ROOT
ATOM      1  C1   11 d         -11.107 208.110 114.006  0.00  0.00     0.271 C 
ATOM      2  O3   11 d         -10.760 208.206 115.237  0.00  0.00    -0.266 OA
ATOM      3  N2   11 d         -10.142 208.408 112.997  0.00  0.00    -0.243 N 
ATOM      4  H5   11 d         -10.366 208.344 111.950  0.00  0.00     0.192 HD
ENDROOT
BRANCH   1   5
ATOM      5  C2   11 d         -12.509 207.687 113.686  0.00  0.00     0.036 A 
ATOM      6  C3   11 d         -12.755 206.943 112.509  0.00  0.00     0.053 A 
ATOM      7  C4   11 d         -14.058 206.511 112.158  0.00  0.00     0.103 A 
ATOM      8  C5   11 d         -15.124 206.846 113.022  0.00  0.00     0.036 A 
ATOM      9  C6   11 d         -14.896 207.576 114.194  0.00  0.00     0.003 A 
ATOM     10  C7   11 d         -13.601 207.991 114.527  0.00  0.00     0.017 A 
BRANCH   7  11
ATOM     11  N1   11 d         -14.293 205.781 110.989  0.00  0.00    -0.116 N 
ATOM     12  O1   11 d         -14.511 204.659 111.035  0.00  0.00    -0.532 OA
ATOM     13  O2   11 d         -14.394 206.361 109.872  0.00  0.00    -0.532 OA
ENDBRANCH   7  11
ENDBRANCH   1   5
BRANCH   3  14
ATOM     14  N3   11 d          -8.860 208.796 113.416  0.00  0.00    -0.181 NA
ATOM     15  C8   11 d          -7.839 208.408 112.692  0.00  0.00     0.175 C 
BRANCH  15  16
ATOM     16  C9   11 d          -6.466 208.781 113.082  0.00  0.00     0.094 A 
ATOM     17  O4   11 d          -5.387 208.273 112.537  0.00  0.00    -0.314 OA
ATOM     18  C10  11 d          -4.350 208.808 113.130  0.00  0.00     0.050 A 
ATOM     19  C11  11 d          -4.751 209.755 114.058  0.00  0.00     0.035 A 
ATOM     20  C13  11 d          -2.952 208.603 112.645  0.00  0.00     0.076 C 
ATOM     21  C12  11 d          -6.131 209.718 114.046  0.00  0.00     0.041 A 
ENDBRANCH  15  16
ENDBRANCH   3  14
TORSDOF 4
ENDMDL
MODEL 9
REMARK VINA RESULT:      -6.9      5.451      7.248
REMARK  4 active torsions:
REMARK  status: ('A' for Active; 'I' for Inactive)
REMARK    1  A    between atoms: C1_1  and  C2_2 
REMARK       I    between atoms: C1_1  and  N2_12 
REMARK    2  A    between atoms: C4_4  and  N1_5 
REMARK    3  A    between atoms: N2_12  and  N3_13 
REMARK    4  A    between atoms: C8_14  and  C9_15 
ROOT
ATOM      1  C1   11 d         -13.886 204.776 116.895  0.00  0.00     0.271 C 
ATOM      2  O3   11 d         -12.623 204.753 117.116  0.00  0.00    -0.266 OA
ATOM      3  N2   11 d         -14.376 205.560 115.805  0.00  0.00    -0.243 N 
ATOM      4  H5   11 d         -15.420 205.620 115.564  0.00  0.00     0.192 HD
ENDROOT
BRANCH   1   5
ATOM      5  C2   11 d         -14.787 203.979 117.789  0.00  0.00     0.036 A 
ATOM      6  C3   11 d         -14.816 204.265 119.173  0.00  0.00     0.053 A 
ATOM      7  C4   11 d         -15.651 203.549 120.065  0.00  0.00     0.103 A 
ATOM      8  C5   11 d         -16.468 202.526 119.535  0.00  0.00     0.036 A 
ATOM      9  C6   11 d         -16.455 202.235 118.166  0.00  0.00     0.003 A 
ATOM     10  C7   11 d         -15.626 202.956 117.298  0.00  0.00     0.017 A 
BRANCH   7  11
ATOM     11  N1   11 d         -15.668 203.834 121.435  0.00  0.00    -0.116 N 
ATOM     12  O1   11 d         -15.268 203.076 122.194  0.00  0.00    -0.532 OA
ATOM     13  O2   11 d         -16.006 204.976 121.855  0.00  0.00    -0.532 OA
ENDBRANCH   7  11
ENDBRANCH   1   5
BRANCH   3  14
ATOM     14  N3   11 d         -13.438 206.266 115.036  0.00  0.00    -0.181 NA
ATOM     15  C8   11 d         -13.296 205.921 113.781  0.00  0.00     0.175 C 
BRANCH  15  16
ATOM     16  C9   11 d         -12.323 206.624 112.922  0.00  0.00     0.094 A 
ATOM     17  O4   11 d         -12.351 206.594 111.611  0.00  0.00    -0.314 OA
ATOM     18  C10  11 d         -11.340 207.303 111.175  0.00  0.00     0.050 A 
ATOM     19  C11  11 d         -10.654 207.880 112.232  0.00  0.00     0.035 A 
ATOM     20  C13  11 d         -11.160 207.644 109.732  0.00  0.00     0.076 C 
ATOM     21  C12  11 d         -11.279 207.415 113.372  0.00  0.00     0.041 A 
ENDBRANCH  15  16
ENDBRANCH   3  14
TORSDOF 4
ENDMDL
MODEL 10
REMARK VINA RESULT:      -6.9     14.085     15.585
REMARK  4 active torsions:
REMARK  status: ('A' for Active; 'I' for Inactive)
REMARK    1  A    between atoms: C1_1  and  C2_2 
REMARK       I    between atoms: C1_1  and  N2_12 
REMARK    2  A    between atoms: C4_4  and  N1_5 
REMARK    3  A    between atoms: N2_12  and  N3_13 
REMARK    4  A    between atoms: C8_14  and  C9_15 
ROOT
ATOM      1  C1   11 d         -10.117 216.122 125.475  0.00  0.00     0.271 C 
ATOM      2  O3   11 d          -9.432 215.875 126.531  0.00  0.00    -0.266 OA
ATOM      3  N2   11 d          -9.740 217.232 124.659  0.00  0.00    -0.243 N 
ATOM      4  H5   11 d         -10.269 217.490 123.761  0.00  0.00     0.192 HD
ENDROOT
BRANCH   1   5
ATOM      5  C2   11 d         -11.278 215.233 125.148  0.00  0.00     0.036 A 
ATOM      6  C3   11 d         -12.034 214.668 126.202  0.00  0.00     0.053 A 
ATOM      7  C4   11 d         -13.145 213.824 125.953  0.00  0.00     0.103 A 
ATOM      8  C5   11 d         -13.488 213.555 124.610  0.00  0.00     0.036 A 
ATOM      9  C6   11 d         -12.753 214.112 123.557  0.00  0.00     0.003 A 
ATOM     10  C7   11 d         -11.661 214.946 123.821  0.00  0.00     0.017 A 
BRANCH   7  11
ATOM     11  N1   11 d         -13.882 213.264 127.001  0.00  0.00    -0.116 N 
ATOM     12  O1   11 d         -13.928 212.129 127.142  0.00  0.00    -0.532 OA
ATOM     13  O2   11 d         -14.411 213.995 127.885  0.00  0.00    -0.532 OA
ENDBRANCH   7  11
ENDBRANCH   1   5
BRANCH   3  14
ATOM     14  N3   11 d          -8.635 217.995 125.065  0.00  0.00    -0.181 NA
ATOM     15  C8   11 d          -7.888 218.531 124.132  0.00  0.00     0.175 C 
BRANCH  15  16
ATOM     16  C9   11 d          -6.710 219.342 124.496  0.00  0.00     0.094 A 
ATOM     17  O4   11 d          -6.236 220.314 123.756  0.00  0.00    -0.314 OA
ATOM     18  C10  11 d          -5.184 220.801 124.364  0.00  0.00     0.050 A 
ATOM     19  C11  11 d          -4.990 220.176 125.585  0.00  0.00     0.035 A 
ATOM     20  C13  11 d          -4.491 222.043 123.904  0.00  0.00     0.076 C 
ATOM     21  C12  11 d          -5.969 219.205 125.659  0.00  0.00     0.041 A 
ENDBRANCH  15  16
ENDBRANCH   3  14
TORSDOF 4
ENDMDL
MODEL 11
REMARK VINA RESULT:      -6.8      2.559      3.890
REMARK  4 active torsions:
REMARK  status: ('A' for Active; 'I' for Inactive)
REMARK    1  A    between atoms: C1_1  and  C2_2 
REMARK       I    between atoms: C1_1  and  N2_12 
REMARK    2  A    between atoms: C4_4  and  N1_5 
REMARK    3  A    between atoms: N2_12  and  N3_13 
REMARK    4  A    between atoms: C8_14  and  C9_15 
ROOT
ATOM      1  C1   11 d          -8.853 208.687 113.230  0.00  0.00     0.271 C 
ATOM      2  O3   11 d          -7.906 209.364 112.690  0.00  0.00    -0.266 OA
ATOM      3  N2   11 d          -8.847 208.511 114.648  0.00  0.00    -0.243 N 
ATOM      4  H5   11 d          -9.610 207.959 115.162  0.00  0.00     0.192 HD
ENDROOT
BRANCH   1   5
ATOM      5  C2   11 d          -9.921 208.115 112.348  0.00  0.00     0.036 A 
ATOM      6  C3   11 d         -10.975 207.373 112.929  0.00  0.00     0.053 A 
ATOM      7  C4   11 d         -12.013 206.813 112.146  0.00  0.00     0.103 A 
ATOM      8  C5   11 d         -11.974 207.014 110.748  0.00  0.00     0.036 A 
ATOM      9  C6   11 d         -10.942 207.751 110.159  0.00  0.00     0.003 A 
ATOM     10  C7   11 d          -9.925 208.300 110.949  0.00  0.00     0.017 A 
BRANCH   7  11
ATOM     11  N1   11 d         -13.048 206.075 112.729  0.00  0.00    -0.116 N 
ATOM     12  O1   11 d         -13.766 205.461 112.081  0.00  0.00    -0.532 OA
ATOM     13  O2   11 d         -13.141 205.967 113.984  0.00  0.00    -0.532 OA
ENDBRANCH   7  11
ENDBRANCH   1   5
BRANCH   3  14
ATOM     14  N3   11 d          -7.794 209.092 115.372  0.00  0.00    -0.181 NA
ATOM     15  C8   11 d          -7.374 208.467 116.443  0.00  0.00     0.175 C 
BRANCH  15  16
ATOM     16  C9   11 d          -6.272 209.029 117.249  0.00  0.00     0.094 A 
ATOM     17  O4   11 d          -5.963 208.614 118.453  0.00  0.00    -0.314 OA
ATOM     18  C10  11 d          -4.958 209.338 118.878  0.00  0.00     0.050 A 
ATOM     19  C11  11 d          -4.541 210.222 117.896  0.00  0.00     0.035 A 
ATOM     20  C13  11 d          -4.219 209.028 120.139  0.00  0.00     0.076 C 
ATOM     21  C12  11 d          -5.415 210.038 116.843  0.00  0.00     0.041 A 
ENDBRANCH  15  16
ENDBRANCH   3  14
TORSDOF 4
ENDMDL
MODEL 12
REMARK VINA RESULT:      -6.8      5.636      8.260
REMARK  4 active torsions:
REMARK  status: ('A' for Active; 'I' for Inactive)
REMARK    1  A    between atoms: C1_1  and  C2_2 
REMARK       I    between atoms: C1_1  and  N2_12 
REMARK    2  A    between atoms: C4_4  and  N1_5 
REMARK    3  A    between atoms: N2_12  and  N3_13 
REMARK    4  A    between atoms: C8_14  and  C9_15 
ROOT
ATOM      1  C1   11 d         -14.054 204.945 116.997  0.00  0.00     0.271 C 
ATOM      2  O3   11 d         -12.786 204.936 116.797  0.00  0.00    -0.266 OA
ATOM      3  N2   11 d         -14.914 205.319 115.920  0.00  0.00    -0.243 N 
ATOM      4  H5   11 d         -15.982 205.344 116.020  0.00  0.00     0.192 HD
ENDROOT
BRANCH   1   5
ATOM      5  C2   11 d         -14.570 204.562 118.351  0.00  0.00     0.036 A 
ATOM      6  C3   11 d         -14.207 205.340 119.474  0.00  0.00     0.053 A 
ATOM      7  C4   11 d         -14.668 205.029 120.777  0.00  0.00     0.103 A 
ATOM      8  C5   11 d         -15.512 203.907 120.933  0.00  0.00     0.036 A 
ATOM      9  C6   11 d         -15.886 203.132 119.830  0.00  0.00     0.003 A 
ATOM     10  C7   11 d         -15.423 203.456 118.549  0.00  0.00     0.017 A 
BRANCH   7  11
ATOM     11  N1   11 d         -14.298 205.799 121.884  0.00  0.00    -0.116 N 
ATOM     12  O1   11 d         -13.638 205.358 122.709  0.00  0.00    -0.532 OA
ATOM     13  O2   11 d         -14.577 207.030 121.940  0.00  0.00    -0.532 OA
ENDBRANCH   7  11
ENDBRANCH   1   5
BRANCH   3  14
ATOM     14  N3   11 d         -14.317 205.659 114.696  0.00  0.00    -0.181 NA
ATOM     15  C8   11 d         -15.103 205.846 113.666  0.00  0.00     0.175 C 
BRANCH  15  16
ATOM     16  C9   11 d         -14.535 206.204 112.351  0.00  0.00     0.094 A 
ATOM     17  O4   11 d         -13.294 206.588 112.172  0.00  0.00    -0.314 OA
ATOM     18  C10  11 d         -13.136 206.843 110.897  0.00  0.00     0.050 A 
ATOM     19  C11  11 d         -14.294 206.555 110.192  0.00  0.00     0.035 A 
ATOM     20  C13  11 d         -11.800 207.130 110.294  0.00  0.00     0.076 C 
ATOM     21  C12  11 d         -15.215 206.164 111.145  0.00  0.00     0.041 A 
ENDBRANCH  15  16
ENDBRANCH   3  14
TORSDOF 4
ENDMDL
MODEL 13
REMARK VINA RESULT:      -6.7      2.114      2.710
REMARK  4 active torsions:
REMARK  status: ('A' for Active; 'I' for Inactive)
REMARK    1  A    between atoms: C1_1  and  C2_2 
REMARK       I    between atoms: C1_1  and  N2_12 
REMARK    2  A    between atoms: C4_4  and  N1_5 
REMARK    3  A    between atoms: N2_12  and  N3_13 
REMARK    4  A    between atoms: C8_14  and  C9_15 
ROOT
ATOM      1  C1   11 d         -12.215 207.996 114.188  0.00  0.00     0.271 C 
ATOM      2  O3   11 d         -11.434 208.006 113.170  0.00  0.00    -0.266 OA
ATOM      3  N2   11 d         -11.795 208.662 115.380  0.00  0.00    -0.243 N 
ATOM      4  H5   11 d         -12.402 208.694 116.264  0.00  0.00     0.192 HD
ENDROOT
BRANCH   1   5
ATOM      5  C2   11 d         -13.531 207.289 114.076  0.00  0.00     0.036 A 
ATOM      6  C3   11 d         -14.283 207.410 112.885  0.00  0.00     0.053 A 
ATOM      7  C4   11 d         -15.530 206.760 112.720  0.00  0.00     0.103 A 
ATOM      8  C5   11 d         -16.017 205.975 113.789  0.00  0.00     0.036 A 
ATOM      9  C6   11 d         -15.282 205.840 114.972  0.00  0.00     0.003 A 
ATOM     10  C7   11 d         -14.049 206.486 115.116  0.00  0.00     0.017 A 
BRANCH   7  11
ATOM     11  N1   11 d         -16.270 206.891 111.540  0.00  0.00    -0.116 N 
ATOM     12  O1   11 d         -17.414 206.919 111.568  0.00  0.00    -0.532 OA
ATOM     13  O2   11 d         -15.697 207.106 110.436  0.00  0.00    -0.532 OA
ENDBRANCH   7  11
ENDBRANCH   1   5
BRANCH   3  14
ATOM     14  N3   11 d         -10.540 209.290 115.368  0.00  0.00    -0.181 NA
ATOM     15  C8   11 d          -9.476 208.526 115.363  0.00  0.00     0.175 C 
BRANCH  15  16
ATOM     16  C9   11 d          -8.128 209.127 115.353  0.00  0.00     0.094 A 
ATOM     17  O4   11 d          -7.287 209.051 116.355  0.00  0.00    -0.314 OA
ATOM     18  C10  11 d          -6.204 209.705 116.017  0.00  0.00     0.050 A 
ATOM     19  C11  11 d          -6.302 210.179 114.719  0.00  0.00     0.035 A 
ATOM     20  C13  11 d          -4.958 209.677 116.841  0.00  0.00     0.076 C 
ATOM     21  C12  11 d          -7.568 209.825 114.295  0.00  0.00     0.041 A 
ENDBRANCH  15  16
ENDBRANCH   3  14
TORSDOF 4
ENDMDL
MODEL 14
REMARK VINA RESULT:      -6.7      4.878      8.470
REMARK  4 active torsions:
REMARK  status: ('A' for Active; 'I' for Inactive)
REMARK    1  A    between atoms: C1_1  and  C2_2 
REMARK       I    between atoms: C1_1  and  N2_12 
REMARK    2  A    between atoms: C4_4  and  N1_5 
REMARK    3  A    between atoms: N2_12  and  N3_13 
REMARK    4  A    between atoms: C8_14  and  C9_15 
ROOT
ATOM      1  C1   11 d         -10.853 208.260 115.364  0.00  0.00     0.271 C 
ATOM      2  O3   11 d         -12.047 208.688 115.173  0.00  0.00    -0.266 OA
ATOM      3  N2   11 d         -10.579 207.499 116.542  0.00  0.00    -0.243 N 
ATOM      4  H5   11 d          -9.603 207.110 116.761  0.00  0.00     0.192 HD
ENDROOT
BRANCH   1   5
ATOM      5  C2   11 d          -9.803 208.577 114.343  0.00  0.00     0.036 A 
ATOM      6  C3   11 d          -8.599 209.192 114.757  0.00  0.00     0.053 A 
ATOM      7  C4   11 d          -7.570 209.511 113.837  0.00  0.00     0.103 A 
ATOM      8  C5   11 d          -7.774 209.196 112.475  0.00  0.00     0.036 A 
ATOM      9  C6   11 d          -8.958 208.581 112.051  0.00  0.00     0.003 A 
ATOM     10  C7   11 d          -9.963 208.270 112.975  0.00  0.00     0.017 A 
BRANCH   7  11
ATOM     11  N1   11 d          -6.385 210.126 114.254  0.00  0.00    -0.116 N 
ATOM     12  O1   11 d          -5.397 209.916 113.716  0.00  0.00    -0.532 OA
ATOM     13  O2   11 d          -6.397 211.017 115.149  0.00  0.00    -0.532 OA
ENDBRANCH   7  11
ENDBRANCH   1   5
BRANCH   3  14
ATOM     14  N3   11 d         -11.641 207.266 117.429  0.00  0.00    -0.181 NA
ATOM     15  C8   11 d         -11.699 206.097 118.016  0.00  0.00     0.175 C 
BRANCH  15  16
ATOM     16  C9   11 d         -12.794 205.790 118.957  0.00  0.00     0.094 A 
ATOM     17  O4   11 d         -12.714 205.967 120.254  0.00  0.00    -0.314 OA
ATOM     18  C10  11 d         -13.848 205.577 120.780  0.00  0.00     0.050 A 
ATOM     19  C11  11 d         -14.738 205.187 119.793  0.00  0.00     0.035 A 
ATOM     20  C13  11 d         -14.187 205.803 122.218  0.00  0.00     0.076 C 
ATOM     21  C12  11 d         -14.041 205.301 118.606  0.00  0.00     0.041 A 
ENDBRANCH  15  16
ENDBRANCH   3  14
TORSDOF 4
ENDMDL
MODEL 15
REMARK VINA RESULT:      -6.6      5.234      6.771
REMARK  4 active torsions:
REMARK  status: ('A' for Active; 'I' for Inactive)
REMARK    1  A    between atoms: C1_1  and  C2_2 
REMARK       I    between atoms: C1_1  and  N2_12 
REMARK    2  A    between atoms: C4_4  and  N1_5 
REMARK    3  A    between atoms: N2_12  and  N3_13 
REMARK    4  A    between atoms: C8_14  and  C9_15 
ROOT
ATOM      1  C1   11 d         -13.059 205.821 117.318  0.00  0.00     0.271 C 
ATOM      2  O3   11 d         -12.306 204.923 116.795  0.00  0.00    -0.266 OA
ATOM      3  N2   11 d         -12.997 207.151 116.802  0.00  0.00    -0.243 N 
ATOM      4  H5   11 d         -13.601 207.948 117.192  0.00  0.00     0.192 HD
ENDROOT
BRANCH   1   5
ATOM      5  C2   11 d         -13.967 205.431 118.444  0.00  0.00     0.036 A 
ATOM      6  C3   11 d         -14.647 204.192 118.386  0.00  0.00     0.053 A 
ATOM      7  C4   11 d         -15.514 203.768 119.423  0.00  0.00     0.103 A 
ATOM      8  C5   11 d         -15.688 204.622 120.535  0.00  0.00     0.036 A 
ATOM      9  C6   11 d         -15.017 205.847 120.610  0.00  0.00     0.003 A 
ATOM     10  C7   11 d         -14.161 206.249 119.578  0.00  0.00     0.017 A 
BRANCH   7  11
ATOM     11  N1   11 d         -16.188 202.545 119.354  0.00  0.00    -0.116 N 
ATOM     12  O1   11 d         -16.611 202.056 120.300  0.00  0.00    -0.532 OA
ATOM     13  O2   11 d         -16.454 202.013 118.241  0.00  0.00    -0.532 OA
ENDBRANCH   7  11
ENDBRANCH   1   5
BRANCH   3  14
ATOM     14  N3   11 d         -12.107 207.400 115.746  0.00  0.00    -0.181 NA
ATOM     15  C8   11 d         -12.580 207.348 114.525  0.00  0.00     0.175 C 
BRANCH  15  16
ATOM     16  C9   11 d         -11.693 207.598 113.372  0.00  0.00     0.094 A 
ATOM     17  O4   11 d         -12.010 207.314 112.132  0.00  0.00    -0.314 OA
ATOM     18  C10  11 d         -10.993 207.645 111.376  0.00  0.00     0.050 A 
ATOM     19  C11  11 d          -9.990 208.230 112.131  0.00  0.00     0.035 A 
ATOM     20  C13  11 d         -11.065 207.633 109.883  0.00  0.00     0.076 C 
ATOM     21  C12  11 d         -10.435 208.175 113.437  0.00  0.00     0.041 A 
ENDBRANCH  15  16
ENDBRANCH   3  14
TORSDOF 4
ENDMDL
MODEL 16
REMARK VINA RESULT:      -6.4      5.518      6.702
REMARK  4 active torsions:
REMARK  status: ('A' for Active; 'I' for Inactive)
REMARK    1  A    between atoms: C1_1  and  C2_2 
REMARK       I    between atoms: C1_1  and  N2_12 
REMARK    2  A    between atoms: C4_4  and  N1_5 
REMARK    3  A    between atoms: N2_12  and  N3_13 
REMARK    4  A    between atoms: C8_14  and  C9_15 
ROOT
ATOM      1  C1   11 d         -12.932 205.685 117.290  0.00  0.00     0.271 C 
ATOM      2  O3   11 d         -12.179 204.820 116.714  0.00  0.00    -0.266 OA
ATOM      3  N2   11 d         -12.814 207.056 116.907  0.00  0.00    -0.243 N 
ATOM      4  H5   11 d         -13.415 207.829 117.347  0.00  0.00     0.192 HD
ENDROOT
BRANCH   1   5
ATOM      5  C2   11 d         -13.898 205.215 118.334  0.00  0.00     0.036 A 
ATOM      6  C3   11 d         -14.139 206.026 119.468  0.00  0.00     0.053 A 
ATOM      7  C4   11 d         -15.045 205.636 120.484  0.00  0.00     0.103 A 
ATOM      8  C5   11 d         -15.714 204.400 120.340  0.00  0.00     0.036 A 
ATOM      9  C6   11 d         -15.491 203.590 119.222  0.00  0.00     0.003 A 
ATOM     10  C7   11 d         -14.594 203.993 118.224  0.00  0.00     0.017 A 
BRANCH   7  11
ATOM     11  N1   11 d         -15.272 206.441 121.605  0.00  0.00    -0.116 N 
ATOM     12  O1   11 d         -14.402 206.958 122.140  0.00  0.00    -0.532 OA
ATOM     13  O2   11 d         -16.447 206.716 121.978  0.00  0.00    -0.532 OA
ENDBRANCH   7  11
ENDBRANCH   1   5
BRANCH   3  14
ATOM     14  N3   11 d         -11.873 207.379 115.918  0.00  0.00    -0.181 NA
ATOM     15  C8   11 d         -12.293 207.456 114.680  0.00  0.00     0.175 C 
BRANCH  15  16
ATOM     16  C9   11 d         -11.350 207.789 113.594  0.00  0.00     0.094 A 
ATOM     17  O4   11 d         -10.206 208.402 113.781  0.00  0.00    -0.314 OA
ATOM     18  C10  11 d          -9.639 208.554 112.611  0.00  0.00     0.050 A 
ATOM     19  C11  11 d         -10.401 207.963 111.616  0.00  0.00     0.035 A 
ATOM     20  C13  11 d          -8.238 209.049 112.455  0.00  0.00     0.076 C 
ATOM     21  C12  11 d         -11.530 207.488 112.253  0.00  0.00     0.041 A 
ENDBRANCH  15  16
ENDBRANCH   3  14
TORSDOF 4
ENDMDL
MODEL 17
REMARK VINA RESULT:      -6.1      6.588      8.243
REMARK  4 active torsions:
REMARK  status: ('A' for Active; 'I' for Inactive)
REMARK    1  A    between atoms: C1_1  and  C2_2 
REMARK       I    between atoms: C1_1  and  N2_12 
REMARK    2  A    between atoms: C4_4  and  N1_5 
REMARK    3  A    between atoms: N2_12  and  N3_13 
REMARK    4  A    between atoms: C8_14  and  C9_15 
ROOT
ATOM      1  C1   11 d         -13.771 205.927 118.507  0.00  0.00     0.271 C 
ATOM      2  O3   11 d         -12.596 206.427 118.627  0.00  0.00    -0.266 OA
ATOM      3  N2   11 d         -14.408 205.974 117.229  0.00  0.00    -0.243 N 
ATOM      4  H5   11 d         -15.388 205.571 117.060  0.00  0.00     0.192 HD
ENDROOT
BRANCH   1   5
ATOM      5  C2   11 d         -14.419 205.317 119.713  0.00  0.00     0.036 A 
ATOM      6  C3   11 d         -14.291 205.959 120.966  0.00  0.00     0.053 A 
ATOM      7  C4   11 d         -14.885 205.432 122.138  0.00  0.00     0.103 A 
ATOM      8  C5   11 d         -15.620 204.231 122.029  0.00  0.00     0.036 A 
ATOM      9  C6   11 d         -15.760 203.586 120.795  0.00  0.00     0.003 A 
ATOM     10  C7   11 d         -15.170 204.124 119.645  0.00  0.00     0.017 A 
BRANCH   7  11
ATOM     11  N1   11 d         -14.748 206.071 123.375  0.00  0.00    -0.116 N 
ATOM     12  O1   11 d         -15.253 205.648 124.311  0.00  0.00    -0.532 OA
ATOM     13  O2   11 d         -13.967 207.054 123.514  0.00  0.00    -0.532 OA
ENDBRANCH   7  11
ENDBRANCH   1   5
BRANCH   3  14
ATOM     14  N3   11 d         -13.705 206.571 116.172  0.00  0.00    -0.181 NA
ATOM     15  C8   11 d         -13.395 205.820 115.144  0.00  0.00     0.175 C 
BRANCH  15  16
ATOM     16  C9   11 d         -12.654 206.391 114.002  0.00  0.00     0.094 A 
ATOM     17  O4   11 d         -11.568 207.114 114.124  0.00  0.00    -0.314 OA
ATOM     18  C10  11 d         -11.188 207.469 112.922  0.00  0.00     0.050 A 
ATOM     19  C11  11 d         -12.014 206.908 111.962  0.00  0.00     0.035 A 
ATOM     20  C13  11 d          -9.884 208.148 112.658  0.00  0.00     0.076 C 
ATOM     21  C12  11 d         -12.986 206.226 112.667  0.00  0.00     0.041 A 
ENDBRANCH  15  16
ENDBRANCH   3  14
TORSDOF 4
ENDMDL
MODEL 18
REMARK VINA RESULT:      -6.1      2.856      3.994
REMARK  4 active torsions:
REMARK  status: ('A' for Active; 'I' for Inactive)
REMARK    1  A    between atoms: C1_1  and  C2_2 
REMARK       I    between atoms: C1_1  and  N2_12 
REMARK    2  A    between atoms: C4_4  and  N1_5 
REMARK    3  A    between atoms: N2_12  and  N3_13 
REMARK    4  A    between atoms: C8_14  and  C9_15 
ROOT
ATOM      1  C1   11 d         -10.214 208.692 115.186  0.00  0.00     0.271 C 
ATOM      2  O3   11 d         -10.287 209.090 116.404  0.00  0.00    -0.266 OA
ATOM      3  N2   11 d          -8.965 208.801 114.503  0.00  0.00    -0.243 N 
ATOM      4  H5   11 d          -8.836 208.484 113.486  0.00  0.00     0.192 HD
ENDROOT
BRANCH   1   5
ATOM      5  C2   11 d         -11.445 208.131 114.540  0.00  0.00     0.036 A 
ATOM      6  C3   11 d         -11.409 207.784 113.170  0.00  0.00     0.053 A 
ATOM      7  C4   11 d         -12.539 207.245 112.507  0.00  0.00     0.103 A 
ATOM      8  C5   11 d         -13.722 207.058 113.256  0.00  0.00     0.036 A 
ATOM      9  C6   11 d         -13.771 207.390 114.614  0.00  0.00     0.003 A 
ATOM     10  C7   11 d         -12.643 207.919 115.254  0.00  0.00     0.017 A 
BRANCH   7  11
ATOM     11  N1   11 d         -12.497 206.911 111.150  0.00  0.00    -0.116 N 
ATOM     12  O1   11 d         -11.527 207.022 110.551  0.00  0.00    -0.532 OA
ATOM     13  O2   11 d         -13.486 206.366 110.585  0.00  0.00    -0.532 OA
ENDBRANCH   7  11
ENDBRANCH   1   5
BRANCH   3  14
ATOM     14  N3   11 d          -7.881 209.344 115.210  0.00  0.00    -0.181 NA
ATOM     15  C8   11 d          -7.023 208.511 115.744  0.00  0.00     0.175 C 
BRANCH  15  16
ATOM     16  C9   11 d          -5.863 209.021 116.502  0.00  0.00     0.094 A 
ATOM     17  O4   11 d          -5.961 209.814 117.541  0.00  0.00    -0.314 OA
ATOM     18  C10  11 d          -4.747 210.084 117.952  0.00  0.00     0.050 A 
ATOM     19  C11  11 d          -3.810 209.394 117.200  0.00  0.00     0.035 A 
ATOM     20  C13  11 d          -4.474 210.811 119.228  0.00  0.00     0.076 C 
ATOM     21  C12  11 d          -4.537 208.722 116.237  0.00  0.00     0.041 A 
ENDBRANCH  15  16
ENDBRANCH   3  14
TORSDOF 4
ENDMDL
MODEL 19
REMARK VINA RESULT:      -6.1      4.040      4.692
REMARK  4 active torsions:
REMARK  status: ('A' for Active; 'I' for Inactive)
REMARK    1  A    between atoms: C1_1  and  C2_2 
REMARK       I    between atoms: C1_1  and  N2_12 
REMARK    2  A    between atoms: C4_4  and  N1_5 
REMARK    3  A    between atoms: N2_12  and  N3_13 
REMARK    4  A    between atoms: C8_14  and  C9_15 
ROOT
ATOM      1  C1   11 d         -12.553 206.248 115.716  0.00  0.00     0.271 C 
ATOM      2  O3   11 d         -12.832 205.533 116.744  0.00  0.00    -0.266 OA
ATOM      3  N2   11 d         -11.349 207.016 115.722  0.00  0.00    -0.243 N 
ATOM      4  H5   11 d         -11.056 207.632 114.894  0.00  0.00     0.192 HD
ENDROOT
BRANCH   1   5
ATOM      5  C2   11 d         -13.504 206.241 114.558  0.00  0.00     0.036 A 
ATOM      6  C3   11 d         -13.010 206.486 113.256  0.00  0.00     0.053 A 
ATOM      7  C4   11 d         -13.860 206.488 112.123  0.00  0.00     0.103 A 
ATOM      8  C5   11 d         -15.236 206.236 112.324  0.00  0.00     0.036 A 
ATOM      9  C6   11 d         -15.739 205.986 113.605  0.00  0.00     0.003 A 
ATOM     10  C7   11 d         -14.883 205.984 114.713  0.00  0.00     0.017 A 
BRANCH   7  11
ATOM     11  N1   11 d         -13.363 206.737 110.840  0.00  0.00    -0.116 N 
ATOM     12  O1   11 d         -14.075 206.860 109.951  0.00  0.00    -0.532 OA
ATOM     13  O2   11 d         -12.134 206.956 110.651  0.00  0.00    -0.532 OA
ENDBRANCH   7  11
ENDBRANCH   1   5
BRANCH   3  14
ATOM     14  N3   11 d         -10.536 206.944 116.864  0.00  0.00    -0.181 NA
ATOM     15  C8   11 d         -10.127 208.071 117.392  0.00  0.00     0.175 C 
BRANCH  15  16
ATOM     16  C9   11 d          -9.267 208.061 118.591  0.00  0.00     0.094 A 
ATOM     17  O4   11 d          -9.399 208.898 119.591  0.00  0.00    -0.314 OA
ATOM     18  C10  11 d          -8.467 208.621 120.469  0.00  0.00     0.050 A 
ATOM     19  C11  11 d          -7.730 207.518 120.070  0.00  0.00     0.035 A 
ATOM     20  C13  11 d          -8.424 209.253 121.822  0.00  0.00     0.076 C 
ATOM     21  C12  11 d          -8.234 207.169 118.833  0.00  0.00     0.041 A 
ENDBRANCH  15  16
ENDBRANCH   3  14
TORSDOF 4
ENDMDL
MODEL 20
REMARK VINA RESULT:      -6.0      6.902      9.037
REMARK  4 active torsions:
REMARK  status: ('A' for Active; 'I' for Inactive)
REMARK    1  A    between atoms: C1_1  and  C2_2 
REMARK       I    between atoms: C1_1  and  N2_12 
REMARK    2  A    between atoms: C4_4  and  N1_5 
REMARK    3  A    between atoms: N2_12  and  N3_13 
REMARK    4  A    between atoms: C8_14  and  C9_15 
ROOT
ATOM      1  C1   11 d         -13.977 206.258 118.965  0.00  0.00     0.271 C 
ATOM      2  O3   11 d         -13.216 207.289 118.899  0.00  0.00    -0.266 OA
ATOM      3  N2   11 d         -14.271 205.546 117.762  0.00  0.00    -0.243 N 
ATOM      4  H5   11 d         -14.897 204.675 117.749  0.00  0.00     0.192 HD
ENDROOT
BRANCH   1   5
ATOM      5  C2   11 d         -14.517 205.849 120.302  0.00  0.00     0.036 A 
ATOM      6  C3   11 d         -13.905 204.782 120.998  0.00  0.00     0.053 A 
ATOM      7  C4   11 d         -14.369 204.355 122.267  0.00  0.00     0.103 A 
ATOM      8  C5   11 d         -15.475 205.029 122.831  0.00  0.00     0.036 A 
ATOM      9  C6   11 d         -16.088 206.091 122.157  0.00  0.00     0.003 A 
ATOM     10  C7   11 d         -15.613 206.502 120.905  0.00  0.00     0.017 A 
BRANCH   7  11
ATOM     11  N1   11 d         -13.762 203.294 122.946  0.00  0.00    -0.116 N 
ATOM     12  O1   11 d         -14.390 202.435 123.368  0.00  0.00    -0.532 OA
ATOM     13  O2   11 d         -12.504 203.195 123.001  0.00  0.00    -0.532 OA
ENDBRANCH   7  11
ENDBRANCH   1   5
BRANCH   3  14
ATOM     14  N3   11 d         -13.709 206.023 116.568  0.00  0.00    -0.181 NA
ATOM     15  C8   11 d         -14.189 205.559 115.441  0.00  0.00     0.175 C 
BRANCH  15  16
ATOM     16  C9   11 d         -13.638 206.019 114.152  0.00  0.00     0.094 A 
ATOM     17  O4   11 d         -14.298 205.984 113.020  0.00  0.00    -0.314 OA
ATOM     18  C10  11 d         -13.509 206.446 112.083  0.00  0.00     0.050 A 
ATOM     19  C11  11 d         -12.303 206.866 112.621  0.00  0.00     0.035 A 
ATOM     20  C13  11 d         -13.986 206.724 110.695  0.00  0.00     0.076 C 
ATOM     21  C12  11 d         -12.377 206.563 113.966  0.00  0.00     0.041 A 
ENDBRANCH  15  16
ENDBRANCH   3  14
TORSDOF 4
ENDMDL
