MODEL 1
REMARK VINA RESULT:      -7.8      0.000      0.000
REMARK  5 active torsions:
REMARK  status: ('A' for Active; 'I' for Inactive)
REMARK    1  A    between atoms: C1_1  and  C2_2 
REMARK    2  A    between atoms: C1_1  and  C9_10 
REMARK    3  A    between atoms: C2_2  and  C3_3 
REMARK    4  A    between atoms: N1_13  and  N2_14 
REMARK    5  A    between atoms: N2_14  and  C11_15 
ROOT
ATOM      1  C1   11 d         -15.460 206.118 112.643  0.00  0.00     0.172 C 
ATOM      2  N1   11 d         -16.117 206.015 113.787  0.00  0.00    -0.167 NA
ENDROOT
BRANCH   1   3
ATOM      3  C2   11 d         -14.011 205.749 112.215  0.00  0.00     0.216 C 
ATOM      4  O1   11 d         -13.899 204.536 111.898  0.00  0.00    -0.285 OA
BRANCH   3   5
ATOM      5  C3   11 d         -12.690 206.522 112.098  0.00  0.00     0.017 A 
ATOM      6  C4   11 d         -12.271 206.884 110.780  0.00  0.00     0.015 A 
ATOM      7  C5   11 d         -11.096 207.606 110.535  0.00  0.00     0.001 A 
ATOM      8  C6   11 d         -10.284 208.000 111.598  0.00  0.00     0.000 A 
ATOM      9  C7   11 d         -10.650 207.661 112.902  0.00  0.00     0.001 A 
ATOM     10  C8   11 d         -11.827 206.934 113.143  0.00  0.00     0.015 A 
ENDBRANCH   3   5
ENDBRANCH   1   3
BRANCH   1  11
ATOM     11  C9   11 d         -16.405 206.727 111.606  0.00  0.00     0.179 C 
ATOM     12  O2   11 d         -17.609 206.974 111.874  0.00  0.00    -0.291 OA
ATOM     13  C10  11 d         -15.930 207.147 110.234  0.00  0.00     0.099 C 
ENDBRANCH   1  11
BRANCH   2  14
ATOM     14  N2   11 d         -15.671 205.581 114.939  0.00  0.00    -0.278 N 
ATOM     15  H9   11 d         -16.112 204.786 115.350  0.00  0.00     0.189 HD
BRANCH  14  16
ATOM     16  C11  11 d         -14.587 206.185 115.557  0.00  0.00     0.050 A 
ATOM     17  C12  11 d         -13.543 205.382 116.061  0.00  0.00     0.032 A 
ATOM     18  C13  11 d         -12.413 205.971 116.650  0.00  0.00     0.021 A 
ATOM     19  C14  11 d         -12.320 207.366 116.756  0.00  0.00     0.011 A 
ATOM     20 Br1   11 d         -10.761 208.175 117.553  0.00  0.00    -0.051 Br
ATOM     21  C15  11 d         -13.362 208.174 116.278  0.00  0.00     0.021 A 
ATOM     22  C16  11 d         -14.488 207.588 115.679  0.00  0.00     0.032 A 
ENDBRANCH  14  16
ENDBRANCH   2  14
TORSDOF 5
ENDMDL
MODEL 2
REMARK VINA RESULT:      -7.7      2.676      4.844
REMARK  5 active torsions:
REMARK  status: ('A' for Active; 'I' for Inactive)
REMARK    1  A    between atoms: C1_1  and  C2_2 
REMARK    2  A    between atoms: C1_1  and  C9_10 
REMARK    3  A    between atoms: C2_2  and  C3_3 
REMARK    4  A    between atoms: N1_13  and  N2_14 
REMARK    5  A    between atoms: N2_14  and  C11_15 
ROOT
ATOM      1  C1   11 d         -13.805 206.235 115.989  0.00  0.00     0.172 C 
ATOM      2  N1   11 d         -12.963 207.234 116.197  0.00  0.00    -0.167 NA
ENDROOT
BRANCH   1   3
ATOM      3  C2   11 d         -14.771 205.888 114.820  0.00  0.00     0.216 C 
ATOM      4  O1   11 d         -15.781 205.243 115.208  0.00  0.00    -0.285 OA
BRANCH   3   5
ATOM      5  C3   11 d         -14.771 206.146 113.307  0.00  0.00     0.017 A 
ATOM      6  C4   11 d         -14.450 205.035 112.466  0.00  0.00     0.015 A 
ATOM      7  C5   11 d         -14.432 205.130 111.068  0.00  0.00     0.001 A 
ATOM      8  C6   11 d         -14.733 206.341 110.447  0.00  0.00     0.000 A 
ATOM      9  C7   11 d         -15.043 207.455 111.229  0.00  0.00     0.001 A 
ATOM     10  C8   11 d         -15.057 207.357 112.630  0.00  0.00     0.015 A 
ENDBRANCH   3   5
ENDBRANCH   1   3
BRANCH   1  11
ATOM     11  C9   11 d         -13.730 205.293 117.191  0.00  0.00     0.179 C 
ATOM     12  O2   11 d         -13.319 204.109 117.079  0.00  0.00    -0.291 OA
ATOM     13  C10  11 d         -14.061 205.752 118.594  0.00  0.00     0.099 C 
ENDBRANCH   1  11
BRANCH   2  14
ATOM     14  N2   11 d         -12.744 208.278 115.437  0.00  0.00    -0.278 N 
ATOM     15  H9   11 d         -13.415 209.015 115.437  0.00  0.00     0.189 HD
BRANCH  14  16
ATOM     16  C11  11 d         -11.586 208.378 114.680  0.00  0.00     0.050 A 
ATOM     17  C12  11 d         -10.464 209.040 115.217  0.00  0.00     0.032 A 
ATOM     18  C13  11 d          -9.266 209.115 114.490  0.00  0.00     0.021 A 
ATOM     19  C14  11 d          -9.180 208.543 113.212  0.00  0.00     0.011 A 
ATOM     20 Br1   11 d          -7.530 208.634 112.219  0.00  0.00    -0.051 Br
ATOM     21  C15  11 d         -10.297 207.900 112.658  0.00  0.00     0.021 A 
ATOM     22  C16  11 d         -11.493 207.815 113.388  0.00  0.00     0.032 A 
ENDBRANCH  14  16
ENDBRANCH   2  14
TORSDOF 5
ENDMDL
MODEL 3
REMARK VINA RESULT:      -7.7      3.719      6.049
REMARK  5 active torsions:
REMARK  status: ('A' for Active; 'I' for Inactive)
REMARK    1  A    between atoms: C1_1  and  C2_2 
REMARK    2  A    between atoms: C1_1  and  C9_10 
REMARK    3  A    between atoms: C2_2  and  C3_3 
REMARK    4  A    between atoms: N1_13  and  N2_14 
REMARK    5  A    between atoms: N2_14  and  C11_15 
ROOT
ATOM      1  C1   11 d         -11.585 207.410 113.623  0.00  0.00     0.172 C 
ATOM      2  N1   11 d         -10.450 208.079 113.749  0.00  0.00    -0.167 NA
ENDROOT
BRANCH   1   3
ATOM      3  C2   11 d         -12.425 206.970 112.389  0.00  0.00     0.216 C 
ATOM      4  O1   11 d         -11.712 206.769 111.371  0.00  0.00    -0.285 OA
BRANCH   3   5
ATOM      5  C3   11 d         -13.919 206.731 112.130  0.00  0.00     0.017 A 
ATOM      6  C4   11 d         -14.395 207.008 110.811  0.00  0.00     0.015 A 
ATOM      7  C5   11 d         -15.731 206.815 110.437  0.00  0.00     0.001 A 
ATOM      8  C6   11 d         -16.654 206.337 111.366  0.00  0.00     0.000 A 
ATOM      9  C7   11 d         -16.235 206.062 112.669  0.00  0.00     0.001 A 
ATOM     10  C8   11 d         -14.896 206.259 113.041  0.00  0.00     0.015 A 
ENDBRANCH   3   5
ENDBRANCH   1   3
BRANCH   1  11
ATOM     11  C9   11 d         -12.078 207.043 115.022  0.00  0.00     0.179 C 
ATOM     12  O2   11 d         -12.749 207.848 115.719  0.00  0.00    -0.291 OA
ATOM     13  C10  11 d         -11.865 205.669 115.616  0.00  0.00     0.099 C 
ENDBRANCH   1  11
BRANCH   2  14
ATOM     14  N2   11 d          -9.715 208.610 112.805  0.00  0.00    -0.278 N 
ATOM     15  H9   11 d         -10.174 209.054 112.039  0.00  0.00     0.189 HD
BRANCH  14  16
ATOM     16  C11  11 d          -8.330 208.594 112.884  0.00  0.00     0.050 A 
ATOM     17  C12  11 d          -7.709 208.745 114.140  0.00  0.00     0.032 A 
ATOM     18  C13  11 d          -6.311 208.686 114.255  0.00  0.00     0.021 A 
ATOM     19  C14  11 d          -5.518 208.491 113.114  0.00  0.00     0.011 A 
ATOM     20 Br1   11 d          -3.599 208.396 113.274  0.00  0.00    -0.051 Br
ATOM     21  C15  11 d          -6.124 208.360 111.856  0.00  0.00     0.021 A 
ATOM     22  C16  11 d          -7.523 208.408 111.741  0.00  0.00     0.032 A 
ENDBRANCH  14  16
ENDBRANCH   2  14
TORSDOF 5
ENDMDL
MODEL 4
REMARK VINA RESULT:      -7.6      3.150      4.912
REMARK  5 active torsions:
REMARK  status: ('A' for Active; 'I' for Inactive)
REMARK    1  A    between atoms: C1_1  and  C2_2 
REMARK    2  A    between atoms: C1_1  and  C9_10 
REMARK    3  A    between atoms: C2_2  and  C3_3 
REMARK    4  A    between atoms: N1_13  and  N2_14 
REMARK    5  A    between atoms: N2_14  and  C11_15 
ROOT
ATOM      1  C1   11 d         -12.013 207.344 116.615  0.00  0.00     0.172 C 
ATOM      2  N1   11 d         -13.163 207.560 117.234  0.00  0.00    -0.167 NA
ENDROOT
BRANCH   1   3
ATOM      3  C2   11 d         -11.637 206.578 115.315  0.00  0.00     0.216 C 
ATOM      4  O1   11 d         -11.583 205.333 115.491  0.00  0.00    -0.285 OA
BRANCH   3   5
ATOM      5  C3   11 d         -11.311 206.994 113.874  0.00  0.00     0.017 A 
ATOM      6  C4   11 d         -11.991 206.289 112.832  0.00  0.00     0.015 A 
ATOM      7  C5   11 d         -11.799 206.582 111.475  0.00  0.00     0.001 A 
ATOM      8  C6   11 d         -10.918 207.593 111.098  0.00  0.00     0.000 A 
ATOM      9  C7   11 d         -10.226 208.302 112.081  0.00  0.00     0.001 A 
ATOM     10  C8   11 d         -10.418 208.004 113.440  0.00  0.00     0.015 A 
ENDBRANCH   3   5
ENDBRANCH   1   3
BRANCH   1  11
ATOM     11  C9   11 d         -10.907 208.028 117.418  0.00  0.00     0.179 C 
ATOM     12  O2   11 d         -11.112 208.483 118.573  0.00  0.00    -0.291 OA
ATOM     13  C10  11 d          -9.486 208.123 116.909  0.00  0.00     0.099 C 
ENDBRANCH   1  11
BRANCH   2  14
ATOM     14  N2   11 d         -14.353 207.120 116.907  0.00  0.00    -0.278 N 
ATOM     15  H9   11 d         -14.988 206.882 117.638  0.00  0.00     0.189 HD
BRANCH  14  16
ATOM     16  C11  11 d         -14.738 207.025 115.578  0.00  0.00     0.050 A 
ATOM     17  C12  11 d         -14.716 208.179 114.769  0.00  0.00     0.032 A 
ATOM     18  C13  11 d         -15.057 208.102 113.409  0.00  0.00     0.021 A 
ATOM     19  C14  11 d         -15.437 206.874 112.847  0.00  0.00     0.011 A 
ATOM     20 Br1   11 d         -15.892 206.766 110.977  0.00  0.00    -0.051 Br
ATOM     21  C15  11 d         -15.483 205.724 113.648  0.00  0.00     0.021 A 
ATOM     22  C16  11 d         -15.132 205.797 115.005  0.00  0.00     0.032 A 
ENDBRANCH  14  16
ENDBRANCH   2  14
TORSDOF 5
ENDMDL
MODEL 5
REMARK VINA RESULT:      -7.4      3.882      5.873
REMARK  5 active torsions:
REMARK  status: ('A' for Active; 'I' for Inactive)
REMARK    1  A    between atoms: C1_1  and  C2_2 
REMARK    2  A    between atoms: C1_1  and  C9_10 
REMARK    3  A    between atoms: C2_2  and  C3_3 
REMARK    4  A    between atoms: N1_13  and  N2_14 
REMARK    5  A    between atoms: N2_14  and  C11_15 
ROOT
ATOM      1  C1   11 d         -10.846 207.659 116.388  0.00  0.00     0.172 C 
ATOM      2  N1   11 d         -11.317 206.433 116.224  0.00  0.00    -0.167 NA
ENDROOT
BRANCH   1   3
ATOM      3  C2   11 d         -10.263 208.712 115.402  0.00  0.00     0.216 C 
ATOM      4  O1   11 d         -10.947 209.768 115.369  0.00  0.00    -0.285 OA
BRANCH   3   5
ATOM      5  C3   11 d          -9.052 208.753 114.460  0.00  0.00     0.017 A 
ATOM      6  C4   11 d          -7.789 209.072 115.050  0.00  0.00     0.015 A 
ATOM      7  C5   11 d          -6.603 209.125 114.307  0.00  0.00     0.001 A 
ATOM      8  C6   11 d          -6.625 208.862 112.938  0.00  0.00     0.000 A 
ATOM      9  C7   11 d          -7.837 208.556 112.318  0.00  0.00     0.001 A 
ATOM     10  C8   11 d          -9.025 208.506 113.065  0.00  0.00     0.015 A 
ENDBRANCH   3   5
ENDBRANCH   1   3
BRANCH   1  11
ATOM     11  C9   11 d         -10.945 208.010 117.872  0.00  0.00     0.179 C 
ATOM     12  O2   11 d         -12.033 207.928 118.500  0.00  0.00    -0.291 OA
ATOM     13  C10  11 d          -9.733 208.392 118.691  0.00  0.00     0.099 C 
ENDBRANCH   1  11
BRANCH   2  14
ATOM     14  N2   11 d         -11.381 205.732 115.119  0.00  0.00    -0.278 N 
ATOM     15  H9   11 d         -10.762 204.958 115.012  0.00  0.00     0.189 HD
BRANCH  14  16
ATOM     16  C11  11 d         -12.313 206.032 114.137  0.00  0.00     0.050 A 
ATOM     17  C12  11 d         -11.868 206.425 112.859  0.00  0.00     0.032 A 
ATOM     18  C13  11 d         -12.789 206.690 111.834  0.00  0.00     0.021 A 
ATOM     19  C14  11 d         -14.166 206.579 112.078  0.00  0.00     0.011 A 
ATOM     20 Br1   11 d         -15.432 206.930 110.667  0.00  0.00    -0.051 Br
ATOM     21  C15  11 d         -14.622 206.209 113.352  0.00  0.00     0.021 A 
ATOM     22  C16  11 d         -13.701 205.933 114.375  0.00  0.00     0.032 A 
ENDBRANCH  14  16
ENDBRANCH   2  14
TORSDOF 5
ENDMDL
MODEL 6
REMARK VINA RESULT:      -7.4      3.299      5.416
REMARK  5 active torsions:
REMARK  status: ('A' for Active; 'I' for Inactive)
REMARK    1  A    between atoms: C1_1  and  C2_2 
REMARK    2  A    between atoms: C1_1  and  C9_10 
REMARK    3  A    between atoms: C2_2  and  C3_3 
REMARK    4  A    between atoms: N1_13  and  N2_14 
REMARK    5  A    between atoms: N2_14  and  C11_15 
ROOT
ATOM      1  C1   11 d         -12.568 207.446 114.733  0.00  0.00     0.172 C 
ATOM      2  N1   11 d         -11.431 208.109 114.593  0.00  0.00    -0.167 NA
ENDROOT
BRANCH   1   3
ATOM      3  C2   11 d         -13.397 206.548 113.771  0.00  0.00     0.216 C 
ATOM      4  O1   11 d         -13.670 205.428 114.276  0.00  0.00    -0.285 OA
BRANCH   3   5
ATOM      5  C3   11 d         -13.952 206.715 112.349  0.00  0.00     0.017 A 
ATOM      6  C4   11 d         -15.374 206.745 112.213  0.00  0.00     0.015 A 
ATOM      7  C5   11 d         -16.009 206.911 110.975  0.00  0.00     0.001 A 
ATOM      8  C6   11 d         -15.250 207.052 109.815  0.00  0.00     0.000 A 
ATOM      9  C7   11 d         -13.857 207.019 109.899  0.00  0.00     0.001 A 
ATOM     10  C8   11 d         -13.224 206.850 111.141  0.00  0.00     0.015 A 
ENDBRANCH   3   5
ENDBRANCH   1   3
BRANCH   1  11
ATOM     11  C9   11 d         -13.076 207.671 116.157  0.00  0.00     0.179 C 
ATOM     12  O2   11 d         -14.290 207.902 116.398  0.00  0.00    -0.291 OA
ATOM     13  C10  11 d         -12.173 207.543 117.363  0.00  0.00     0.099 C 
ENDBRANCH   1  11
BRANCH   2  14
ATOM     14  N2   11 d         -10.684 208.217 113.523  0.00  0.00    -0.278 N 
ATOM     15  H9   11 d         -11.106 208.062 112.633  0.00  0.00     0.189 HD
BRANCH  14  16
ATOM     16  C11  11 d          -9.349 208.579 113.618  0.00  0.00     0.050 A 
ATOM     17  C12  11 d          -8.487 208.334 112.530  0.00  0.00     0.032 A 
ATOM     18  C13  11 d          -7.142 208.732 112.584  0.00  0.00     0.021 A 
ATOM     19  C14  11 d          -6.640 209.365 113.730  0.00  0.00     0.011 A 
ATOM     20 Br1   11 d          -4.796 209.924 113.798  0.00  0.00    -0.051 Br
ATOM     21  C15  11 d          -7.483 209.595 114.827  0.00  0.00     0.021 A 
ATOM     22  C16  11 d          -8.831 209.208 114.771  0.00  0.00     0.032 A 
ENDBRANCH  14  16
ENDBRANCH   2  14
TORSDOF 5
ENDMDL
MODEL 7
REMARK VINA RESULT:      -7.3      4.075      6.099
REMARK  5 active torsions:
REMARK  status: ('A' for Active; 'I' for Inactive)
REMARK    1  A    between atoms: C1_1  and  C2_2 
REMARK    2  A    between atoms: C1_1  and  C9_10 
REMARK    3  A    between atoms: C2_2  and  C3_3 
REMARK    4  A    between atoms: N1_13  and  N2_14 
REMARK    5  A    between atoms: N2_14  and  C11_15 
ROOT
ATOM      1  C1   11 d         -11.475 208.193 115.935  0.00  0.00     0.172 C 
ATOM      2  N1   11 d         -10.298 208.799 115.960  0.00  0.00    -0.167 NA
ENDROOT
BRANCH   1   3
ATOM      3  C2   11 d         -12.624 208.153 114.888  0.00  0.00     0.216 C 
ATOM      4  O1   11 d         -13.684 208.677 115.320  0.00  0.00    -0.285 OA
BRANCH   3   5
ATOM      5  C3   11 d         -12.762 207.618 113.456  0.00  0.00     0.017 A 
ATOM      6  C4   11 d         -14.089 207.507 112.935  0.00  0.00     0.015 A 
ATOM      7  C5   11 d         -14.352 207.051 111.637  0.00  0.00     0.001 A 
ATOM      8  C6   11 d         -13.301 206.683 110.799  0.00  0.00     0.000 A 
ATOM      9  C7   11 d         -11.989 206.766 111.269  0.00  0.00     0.001 A 
ATOM     10  C8   11 d         -11.728 207.221 112.572  0.00  0.00     0.015 A 
ENDBRANCH   3   5
ENDBRANCH   1   3
BRANCH   1  11
ATOM     11  C9   11 d         -11.629 207.401 117.234  0.00  0.00     0.179 C 
ATOM     12  O2   11 d         -11.505 207.949 118.360  0.00  0.00    -0.291 OA
ATOM     13  C10  11 d         -12.023 205.942 117.244  0.00  0.00     0.099 C 
ENDBRANCH   1  11
BRANCH   2  14
ATOM     14  N2   11 d          -9.784 209.606 115.066  0.00  0.00    -0.278 N 
ATOM     15  H9   11 d         -10.256 210.463 114.873  0.00  0.00     0.189 HD
BRANCH  14  16
ATOM     16  C11  11 d          -8.591 209.298 114.429  0.00  0.00     0.050 A 
ATOM     17  C12  11 d          -7.387 209.346 115.159  0.00  0.00     0.032 A 
ATOM     18  C13  11 d          -6.171 208.996 114.551  0.00  0.00     0.021 A 
ATOM     19  C14  11 d          -6.144 208.608 113.203  0.00  0.00     0.011 A 
ATOM     20 Br1   11 d          -4.476 208.113 112.372  0.00  0.00    -0.051 Br
ATOM     21  C15  11 d          -7.333 208.578 112.461  0.00  0.00     0.021 A 
ATOM     22  C16  11 d          -8.551 208.918 113.070  0.00  0.00     0.032 A 
ENDBRANCH  14  16
ENDBRANCH   2  14
TORSDOF 5
ENDMDL
MODEL 8
REMARK VINA RESULT:      -6.9      2.685      4.628
REMARK  5 active torsions:
REMARK  status: ('A' for Active; 'I' for Inactive)
REMARK    1  A    between atoms: C1_1  and  C2_2 
REMARK    2  A    between atoms: C1_1  and  C9_10 
REMARK    3  A    between atoms: C2_2  and  C3_3 
REMARK    4  A    between atoms: N1_13  and  N2_14 
REMARK    5  A    between atoms: N2_14  and  C11_15 
ROOT
ATOM      1  C1   11 d         -11.843 207.300 113.916  0.00  0.00     0.172 C 
ATOM      2  N1   11 d         -11.320 206.334 114.655  0.00  0.00    -0.167 NA
ENDROOT
BRANCH   1   3
ATOM      3  C2   11 d         -13.307 207.738 113.626  0.00  0.00     0.216 C 
ATOM      4  O1   11 d         -13.632 208.773 114.265  0.00  0.00    -0.285 OA
BRANCH   3   5
ATOM      5  C3   11 d         -14.442 207.195 112.747  0.00  0.00     0.017 A 
ATOM      6  C4   11 d         -15.507 206.519 113.419  0.00  0.00     0.015 A 
ATOM      7  C5   11 d         -16.613 205.992 112.737  0.00  0.00     0.001 A 
ATOM      8  C6   11 d         -16.703 206.117 111.352  0.00  0.00     0.000 A 
ATOM      9  C7   11 d         -15.680 206.762 110.654  0.00  0.00     0.001 A 
ATOM     10  C8   11 d         -14.573 207.286 111.339  0.00  0.00     0.015 A 
ENDBRANCH   3   5
ENDBRANCH   1   3
BRANCH   1  11
ATOM     11  C9   11 d         -10.696 208.077 113.271  0.00  0.00     0.179 C 
ATOM     12  O2   11 d         -10.600 208.200 112.022  0.00  0.00    -0.291 OA
ATOM     13  C10  11 d          -9.662 208.815 114.092  0.00  0.00     0.099 C 
ENDBRANCH   1  11
BRANCH   2  14
ATOM     14  N2   11 d         -11.946 205.414 115.346  0.00  0.00    -0.278 N 
ATOM     15  H9   11 d         -11.915 204.473 115.020  0.00  0.00     0.189 HD
BRANCH  14  16
ATOM     16  C11  11 d         -12.604 205.733 116.524  0.00  0.00     0.050 A 
ATOM     17  C12  11 d         -12.345 206.970 117.148  0.00  0.00     0.032 A 
ATOM     18  C13  11 d         -13.031 207.336 118.316  0.00  0.00     0.021 A 
ATOM     19  C14  11 d         -13.972 206.465 118.883  0.00  0.00     0.011 A 
ATOM     20 Br1   11 d         -14.925 206.973 120.481  0.00  0.00    -0.051 Br
ATOM     21  C15  11 d         -14.223 205.222 118.284  0.00  0.00     0.021 A 
ATOM     22  C16  11 d         -13.546 204.858 117.109  0.00  0.00     0.032 A 
ENDBRANCH  14  16
ENDBRANCH   2  14
TORSDOF 5
ENDMDL
MODEL 9
REMARK VINA RESULT:      -6.9      2.963      4.716
REMARK  5 active torsions:
REMARK  status: ('A' for Active; 'I' for Inactive)
REMARK    1  A    between atoms: C1_1  and  C2_2 
REMARK    2  A    between atoms: C1_1  and  C9_10 
REMARK    3  A    between atoms: C2_2  and  C3_3 
REMARK    4  A    between atoms: N1_13  and  N2_14 
REMARK    5  A    between atoms: N2_14  and  C11_15 
ROOT
ATOM      1  C1   11 d         -11.317 207.753 113.736  0.00  0.00     0.172 C 
ATOM      2  N1   11 d         -10.909 208.551 114.710  0.00  0.00    -0.167 NA
ENDROOT
BRANCH   1   3
ATOM      3  C2   11 d         -12.509 206.763 113.606  0.00  0.00     0.216 C 
ATOM      4  O1   11 d         -12.480 205.860 114.482  0.00  0.00    -0.285 OA
BRANCH   3   5
ATOM      5  C3   11 d         -13.705 206.634 112.652  0.00  0.00     0.017 A 
ATOM      6  C4   11 d         -14.211 205.315 112.431  0.00  0.00     0.015 A 
ATOM      7  C5   11 d         -15.310 205.060 111.599  0.00  0.00     0.001 A 
ATOM      8  C6   11 d         -15.952 206.112 110.949  0.00  0.00     0.000 A 
ATOM      9  C7   11 d         -15.486 207.416 111.128  0.00  0.00     0.001 A 
ATOM     10  C8   11 d         -14.383 207.668 111.960  0.00  0.00     0.015 A 
ENDBRANCH   3   5
ENDBRANCH   1   3
BRANCH   1  11
ATOM     11  C9   11 d         -10.361 207.920 112.554  0.00  0.00     0.179 C 
ATOM     12  O2   11 d          -9.137 208.161 112.723  0.00  0.00    -0.291 OA
ATOM     13  C10  11 d         -10.809 207.723 111.124  0.00  0.00     0.099 C 
ENDBRANCH   1  11
BRANCH   2  14
ATOM     14  N2   11 d         -11.418 208.690 115.909  0.00  0.00    -0.278 N 
ATOM     15  H9   11 d         -12.208 209.287 116.022  0.00  0.00     0.189 HD
BRANCH  14  16
ATOM     16  C11  11 d         -10.899 207.993 116.989  0.00  0.00     0.050 A 
ATOM     17  C12  11 d          -9.540 208.153 117.326  0.00  0.00     0.032 A 
ATOM     18  C13  11 d          -9.001 207.494 118.442  0.00  0.00     0.021 A 
ATOM     19  C14  11 d          -9.809 206.657 119.225  0.00  0.00     0.011 A 
ATOM     20 Br1   11 d          -9.072 205.762 120.766  0.00  0.00    -0.051 Br
ATOM     21  C15  11 d         -11.158 206.472 118.886  0.00  0.00     0.021 A 
ATOM     22  C16  11 d         -11.701 207.139 117.777  0.00  0.00     0.032 A 
ENDBRANCH  14  16
ENDBRANCH   2  14
TORSDOF 5
ENDMDL
MODEL 10
REMARK VINA RESULT:      -6.9      3.538      4.963
REMARK  5 active torsions:
REMARK  status: ('A' for Active; 'I' for Inactive)
REMARK    1  A    between atoms: C1_1  and  C2_2 
REMARK    2  A    between atoms: C1_1  and  C9_10 
REMARK    3  A    between atoms: C2_2  and  C3_3 
REMARK    4  A    between atoms: N1_13  and  N2_14 
REMARK    5  A    between atoms: N2_14  and  C11_15 
ROOT
ATOM      1  C1   11 d         -13.590 205.853 115.688  0.00  0.00     0.172 C 
ATOM      2  N1   11 d         -13.169 205.214 116.768  0.00  0.00    -0.167 NA
ENDROOT
BRANCH   1   3
ATOM      3  C2   11 d         -14.785 205.624 114.719  0.00  0.00     0.216 C 
ATOM      4  O1   11 d         -15.758 205.060 115.283  0.00  0.00    -0.285 OA
BRANCH   3   5
ATOM      5  C3   11 d         -15.044 205.924 113.236  0.00  0.00     0.017 A 
ATOM      6  C4   11 d         -13.930 205.790 112.349  0.00  0.00     0.015 A 
ATOM      7  C5   11 d         -14.034 206.015 110.970  0.00  0.00     0.001 A 
ATOM      8  C6   11 d         -15.258 206.386 110.414  0.00  0.00     0.000 A 
ATOM      9  C7   11 d         -16.370 206.537 111.244  0.00  0.00     0.001 A 
ATOM     10  C8   11 d         -16.261 206.314 112.626  0.00  0.00     0.015 A 
ENDBRANCH   3   5
ENDBRANCH   1   3
BRANCH   1  11
ATOM     11  C9   11 d         -12.650 207.033 115.438  0.00  0.00     0.179 C 
ATOM     12  O2   11 d         -11.399 206.898 115.466  0.00  0.00    -0.291 OA
ATOM     13  C10  11 d         -13.162 208.404 115.058  0.00  0.00     0.099 C 
ENDBRANCH   1  11
BRANCH   2  14
ATOM     14  N2   11 d         -13.663 204.128 117.309  0.00  0.00    -0.278 N 
ATOM     15  H9   11 d         -13.384 203.245 116.940  0.00  0.00     0.189 HD
BRANCH  14  16
ATOM     16  C11  11 d         -14.521 204.200 118.396  0.00  0.00     0.050 A 
ATOM     17  C12  11 d         -15.516 203.215 118.556  0.00  0.00     0.032 A 
ATOM     18  C13  11 d         -16.369 203.239 119.671  0.00  0.00     0.021 A 
ATOM     19  C14  11 d         -16.245 204.255 120.631  0.00  0.00     0.011 A 
ATOM     20 Br1   11 d         -17.406 204.279 122.170  0.00  0.00    -0.051 Br
ATOM     21  C15  11 d         -15.272 205.252 120.471  0.00  0.00     0.021 A 
ATOM     22  C16  11 d         -14.412 205.224 119.362  0.00  0.00     0.032 A 
ENDBRANCH  14  16
ENDBRANCH   2  14
TORSDOF 5
ENDMDL
