MODEL 1
REMARK VINA RESULT:     -10.0      0.000      0.000
REMARK  5 active torsions:
REMARK  status: ('A' for Active; 'I' for Inactive)
REMARK    1  A    between atoms: C10_14  and  N3_15 
REMARK    2  A    between atoms: N3_15  and  C11_16 
REMARK    3  A    between atoms: C14_19  and  S2_20 
REMARK    4  A    between atoms: S2_20  and  N4_23 
REMARK    5  A    between atoms: N4_23  and  C15_24 
ROOT
ATOM      1  C11  11 d         -13.526 205.525 116.716  0.00  0.00     0.032 A 
ATOM      2  C12  11 d         -13.388 206.759 117.385  0.00  0.00     0.031 A 
ATOM      3  C13  11 d         -13.881 206.925 118.687  0.00  0.00     0.027 A 
ATOM      4  C14  11 d         -14.496 205.852 119.350  0.00  0.00     0.080 A 
ATOM      5  C20  11 d         -14.545 204.592 118.734  0.00  0.00     0.027 A 
ATOM      6  C21  11 d         -14.059 204.427 117.429  0.00  0.00     0.031 A 
ENDROOT
BRANCH   1   7
ATOM      7  N3   11 d         -13.183 205.452 115.366  0.00  0.00    -0.365 N 
ATOM      8  H6   11 d         -13.655 204.790 114.789  0.00  0.00     0.165 HD
BRANCH   7   9
ATOM      9  C10  11 d         -12.232 206.243 114.740  0.00  0.00     0.106 C 
ATOM     10  C1   11 d         -12.242 206.698 113.460  0.00  0.00     0.061 A 
ATOM     11  C2   11 d         -13.264 206.667 112.370  0.00  0.00     0.027 A 
ATOM     12  C9   11 d         -11.047 207.284 112.815  0.00  0.00     0.258 A 
ATOM     13  C3   11 d         -14.648 206.411 112.291  0.00  0.00     0.048 A 
ATOM     14  C8   11 d         -12.623 207.066 111.187  0.00  0.00     0.048 A 
ATOM     15  C4   11 d         -15.315 206.422 111.067  0.00  0.00     0.075 A 
ATOM     16  S1   11 d         -15.667 206.137 113.345  0.00  0.00    -0.080 SA
ATOM     17  N1   11 d         -16.637 206.145 111.213  0.00  0.00    -0.253 NA
ATOM     18  C6   11 d         -14.644 206.734 109.876  0.00  0.00     0.035 A 
ATOM     19  C5   11 d         -16.917 205.970 112.529  0.00  0.00     0.167 A 
ATOM     20  C7   11 d         -13.281 207.088 109.940  0.00  0.00     0.033 A 
ATOM     21  N2   11 d         -11.266 207.486 111.445  0.00  0.00    -0.322 N 
ATOM     22  H4   11 d         -10.575 207.879 110.725  0.00  0.00     0.169 HD
ATOM     23  O1   11 d          -9.941 207.565 113.396  0.00  0.00    -0.267 OA
ENDBRANCH   7   9
ENDBRANCH   1   7
BRANCH   4  24
ATOM     24  S2   11 d         -15.280 206.089 120.951  0.00  0.00     0.264 S 
ATOM     25  O2   11 d         -14.569 207.236 121.671  0.00  0.00    -0.200 OA
ATOM     26  O3   11 d         -15.091 204.837 121.812  0.00  0.00    -0.200 OA
BRANCH  24  27
ATOM     27  N4   11 d         -16.926 206.434 120.841  0.00  0.00    -0.264 N 
ATOM     28  H9   11 d         -17.188 207.285 120.400  0.00  0.00     0.180 HD
BRANCH  27  29
ATOM     29  C15  11 d         -17.930 205.606 121.323  0.00  0.00     0.136 A 
ATOM     30  N5   11 d         -18.345 204.586 120.511  0.00  0.00    -0.243 NA
ATOM     31  C16  11 d         -19.319 203.704 120.879  0.00  0.00     0.119 A 
ATOM     32  C17  11 d         -19.938 203.827 122.129  0.00  0.00     0.019 A 
ATOM     33  C18  11 d         -19.543 204.860 122.987  0.00  0.00     0.005 A 
ATOM     34  C19  11 d         -18.537 205.751 122.592  0.00  0.00     0.051 A 
ENDBRANCH  27  29
ENDBRANCH  24  27
ENDBRANCH   4  24
TORSDOF 5
ENDMDL
MODEL 2
REMARK VINA RESULT:      -9.9      1.580      2.317
REMARK  5 active torsions:
REMARK  status: ('A' for Active; 'I' for Inactive)
REMARK    1  A    between atoms: C10_14  and  N3_15 
REMARK    2  A    between atoms: N3_15  and  C11_16 
REMARK    3  A    between atoms: C14_19  and  S2_20 
REMARK    4  A    between atoms: S2_20  and  N4_23 
REMARK    5  A    between atoms: N4_23  and  C15_24 
ROOT
ATOM      1  C11  11 d         -12.526 206.505 116.895  0.00  0.00     0.032 A 
ATOM      2  C12  11 d         -13.232 205.319 117.189  0.00  0.00     0.031 A 
ATOM      3  C13  11 d         -14.028 205.228 118.340  0.00  0.00     0.027 A 
ATOM      4  C14  11 d         -14.152 206.330 119.201  0.00  0.00     0.080 A 
ATOM      5  C20  11 d         -13.538 207.546 118.863  0.00  0.00     0.027 A 
ATOM      6  C21  11 d         -12.736 207.636 117.716  0.00  0.00     0.031 A 
ENDROOT
BRANCH   1   7
ATOM      7  N3   11 d         -11.611 206.497 115.844  0.00  0.00    -0.365 N 
ATOM      8  H6   11 d         -11.516 205.667 115.300  0.00  0.00     0.165 HD
BRANCH   7   9
ATOM      9  C10  11 d         -10.812 207.567 115.472  0.00  0.00     0.106 C 
ATOM     10  C1   11 d         -10.550 208.011 114.216  0.00  0.00     0.061 A 
ATOM     11  C2   11 d         -11.097 207.660 112.870  0.00  0.00     0.027 A 
ATOM     12  C9   11 d          -9.462 208.970 113.921  0.00  0.00     0.258 A 
ATOM     13  C3   11 d         -12.223 206.961 112.390  0.00  0.00     0.048 A 
ATOM     14  C8   11 d         -10.270 208.266 111.912  0.00  0.00     0.048 A 
ATOM     15  C4   11 d         -12.424 206.768 111.024  0.00  0.00     0.075 A 
ATOM     16  S1   11 d         -13.386 206.349 113.096  0.00  0.00    -0.080 SA
ATOM     17  N1   11 d         -13.561 206.067 110.776  0.00  0.00    -0.253 NA
ATOM     18  C6   11 d         -11.539 207.303 110.076  0.00  0.00     0.035 A 
ATOM     19  C5   11 d         -14.182 205.789 111.951  0.00  0.00     0.167 A 
ATOM     20  C7   11 d         -10.458 208.087 110.527  0.00  0.00     0.033 A 
ATOM     21  N2   11 d          -9.278 209.108 112.538  0.00  0.00    -0.322 N 
ATOM     22  H4   11 d          -8.553 209.718 112.035  0.00  0.00     0.169 HD
ATOM     23  O1   11 d          -8.755 209.593 114.788  0.00  0.00    -0.267 OA
ENDBRANCH   7   9
ENDBRANCH   1   7
BRANCH   4  24
ATOM     24  S2   11 d         -15.032 206.182 120.762  0.00  0.00     0.264 S 
ATOM     25  O2   11 d         -14.335 207.073 121.793  0.00  0.00    -0.200 OA
ATOM     26  O3   11 d         -14.936 204.744 121.278  0.00  0.00    -0.200 OA
BRANCH  24  27
ATOM     27  N4   11 d         -16.656 206.619 120.655  0.00  0.00    -0.264 N 
ATOM     28  H9   11 d         -16.910 207.271 119.950  0.00  0.00     0.180 HD
BRANCH  27  29
ATOM     29  C15  11 d         -17.652 206.123 121.483  0.00  0.00     0.136 A 
ATOM     30  N5   11 d         -17.587 206.454 122.809  0.00  0.00    -0.243 NA
ATOM     31  C16  11 d         -18.513 206.031 123.718  0.00  0.00     0.119 A 
ATOM     32  C17  11 d         -19.580 205.223 123.306  0.00  0.00     0.019 A 
ATOM     33  C18  11 d         -19.679 204.861 121.957  0.00  0.00     0.005 A 
ATOM     34  C19  11 d         -18.720 205.310 121.040  0.00  0.00     0.051 A 
ENDBRANCH  27  29
ENDBRANCH  24  27
ENDBRANCH   4  24
TORSDOF 5
ENDMDL
MODEL 3
REMARK VINA RESULT:      -9.9      4.882      8.639
REMARK  5 active torsions:
REMARK  status: ('A' for Active; 'I' for Inactive)
REMARK    1  A    between atoms: C10_14  and  N3_15 
REMARK    2  A    between atoms: N3_15  and  C11_16 
REMARK    3  A    between atoms: C14_19  and  S2_20 
REMARK    4  A    between atoms: S2_20  and  N4_23 
REMARK    5  A    between atoms: N4_23  and  C15_24 
ROOT
ATOM      1  C11  11 d         -10.167 208.112 113.635  0.00  0.00     0.032 A 
ATOM      2  C12  11 d         -10.011 208.647 114.931  0.00  0.00     0.031 A 
ATOM      3  C13  11 d          -8.803 209.247 115.317  0.00  0.00     0.027 A 
ATOM      4  C14  11 d          -7.742 209.344 114.404  0.00  0.00     0.080 A 
ATOM      5  C20  11 d          -7.922 208.909 113.081  0.00  0.00     0.027 A 
ATOM      6  C21  11 d          -9.127 208.303 112.697  0.00  0.00     0.031 A 
ENDROOT
BRANCH   1   7
ATOM      7  N3   11 d         -11.312 207.371 113.349  0.00  0.00    -0.365 N 
ATOM      8  H6   11 d         -11.661 207.373 112.416  0.00  0.00     0.165 HD
BRANCH   7   9
ATOM      9  C10  11 d         -12.019 206.607 114.266  0.00  0.00     0.106 C 
ATOM     10  C1   11 d         -13.323 206.234 114.206  0.00  0.00     0.061 A 
ATOM     11  C2   11 d         -14.374 206.346 113.149  0.00  0.00     0.027 A 
ATOM     12  C9   11 d         -14.044 205.673 115.369  0.00  0.00     0.258 A 
ATOM     13  C3   11 d         -14.388 206.625 111.767  0.00  0.00     0.048 A 
ATOM     14  C8   11 d         -15.601 206.013 113.743  0.00  0.00     0.048 A 
ATOM     15  C4   11 d         -15.587 206.700 111.059  0.00  0.00     0.075 A 
ATOM     16  S1   11 d         -13.285 206.847 110.788  0.00  0.00    -0.080 SA
ATOM     17  N1   11 d         -15.379 206.985 109.747  0.00  0.00    -0.253 NA
ATOM     18  C6   11 d         -16.818 206.453 111.685  0.00  0.00     0.035 A 
ATOM     19  C5   11 d         -14.045 207.082 109.514  0.00  0.00     0.167 A 
ATOM     20  C7   11 d         -16.822 206.077 113.043  0.00  0.00     0.033 A 
ATOM     21  N2   11 d         -15.416 205.559 115.101  0.00  0.00    -0.322 N 
ATOM     22  H4   11 d         -16.182 205.202 115.762  0.00  0.00     0.169 HD
ATOM     23  O1   11 d         -13.521 205.341 116.490  0.00  0.00    -0.267 OA
ENDBRANCH   7   9
ENDBRANCH   1   7
BRANCH   4  24
ATOM     24  S2   11 d          -6.134 209.958 114.925  0.00  0.00     0.264 S 
ATOM     25  O2   11 d          -6.260 211.455 115.214  0.00  0.00    -0.200 OA
ATOM     26  O3   11 d          -5.125 209.809 113.782  0.00  0.00    -0.200 OA
BRANCH  24  27
ATOM     27  N4   11 d          -5.534 209.175 116.292  0.00  0.00    -0.264 N 
ATOM     28  H9   11 d          -4.924 208.404 116.147  0.00  0.00     0.180 HD
BRANCH  27  29
ATOM     29  C15  11 d          -5.835 209.541 117.595  0.00  0.00     0.136 A 
ATOM     30  N5   11 d          -6.768 208.790 118.258  0.00  0.00    -0.243 NA
ATOM     31  C16  11 d          -7.141 209.050 119.545  0.00  0.00     0.119 A 
ATOM     32  C17  11 d          -6.567 210.124 120.236  0.00  0.00     0.019 A 
ATOM     33  C18  11 d          -5.612 210.918 119.591  0.00  0.00     0.005 A 
ATOM     34  C19  11 d          -5.239 210.630 118.271  0.00  0.00     0.051 A 
ENDBRANCH  27  29
ENDBRANCH  24  27
ENDBRANCH   4  24
TORSDOF 5
ENDMDL
MODEL 4
REMARK VINA RESULT:      -9.9      5.054     10.686
REMARK  5 active torsions:
REMARK  status: ('A' for Active; 'I' for Inactive)
REMARK    1  A    between atoms: C10_14  and  N3_15 
REMARK    2  A    between atoms: N3_15  and  C11_16 
REMARK    3  A    between atoms: C14_19  and  S2_20 
REMARK    4  A    between atoms: S2_20  and  N4_23 
REMARK    5  A    between atoms: N4_23  and  C15_24 
ROOT
ATOM      1  C11  11 d          -9.971 208.343 113.686  0.00  0.00     0.032 A 
ATOM      2  C12  11 d          -9.478 208.842 114.910  0.00  0.00     0.031 A 
ATOM      3  C13  11 d          -8.105 209.067 115.089  0.00  0.00     0.027 A 
ATOM      4  C14  11 d          -7.207 208.821 114.039  0.00  0.00     0.080 A 
ATOM      5  C20  11 d          -7.698 208.424 112.785  0.00  0.00     0.027 A 
ATOM      6  C21  11 d          -9.070 208.192 112.607  0.00  0.00     0.031 A 
ENDROOT
BRANCH   1   7
ATOM      7  N3   11 d         -11.311 207.968 113.607  0.00  0.00    -0.365 N 
ATOM      8  H6   11 d         -11.846 208.270 112.822  0.00  0.00     0.165 HD
BRANCH   7   9
ATOM      9  C10  11 d         -11.977 207.185 114.538  0.00  0.00     0.106 C 
ATOM     10  C1   11 d         -13.219 206.645 114.432  0.00  0.00     0.061 A 
ATOM     11  C2   11 d         -14.203 206.551 113.311  0.00  0.00     0.027 A 
ATOM     12  C9   11 d         -13.941 206.077 115.591  0.00  0.00     0.258 A 
ATOM     13  C3   11 d         -14.161 206.731 111.913  0.00  0.00     0.048 A 
ATOM     14  C8   11 d         -15.417 206.105 113.857  0.00  0.00     0.048 A 
ATOM     15  C4   11 d         -15.310 206.604 111.134  0.00  0.00     0.075 A 
ATOM     16  S1   11 d         -13.031 207.024 110.985  0.00  0.00    -0.080 SA
ATOM     17  N1   11 d         -15.053 206.823 109.818  0.00  0.00    -0.253 NA
ATOM     18  C6   11 d         -16.540 206.246 111.706  0.00  0.00     0.035 A 
ATOM     19  C5   11 d         -13.729 207.073 109.655  0.00  0.00     0.167 A 
ATOM     20  C7   11 d         -16.588 205.966 113.087  0.00  0.00     0.033 A 
ATOM     21  N2   11 d         -15.268 205.772 115.254  0.00  0.00    -0.322 N 
ATOM     22  H4   11 d         -16.027 205.367 115.896  0.00  0.00     0.169 HD
ATOM     23  O1   11 d         -13.456 205.892 116.761  0.00  0.00    -0.267 OA
ENDBRANCH   7   9
ENDBRANCH   1   7
BRANCH   4  24
ATOM     24  S2   11 d          -5.433 208.944 114.299  0.00  0.00     0.264 S 
ATOM     25  O2   11 d          -5.149 208.750 115.790  0.00  0.00    -0.200 OA
ATOM     26  O3   11 d          -4.951 210.351 113.934  0.00  0.00    -0.200 OA
BRANCH  24  27
ATOM     27  N4   11 d          -4.550 207.815 113.412  0.00  0.00    -0.264 N 
ATOM     28  H9   11 d          -4.602 206.866 113.698  0.00  0.00     0.180 HD
BRANCH  27  29
ATOM     29  C15  11 d          -3.765 208.130 112.312  0.00  0.00     0.136 A 
ATOM     30  N5   11 d          -2.542 208.694 112.557  0.00  0.00    -0.243 NA
ATOM     31  C16  11 d          -1.679 209.040 111.557  0.00  0.00     0.119 A 
ATOM     32  C17  11 d          -2.036 208.825 110.220  0.00  0.00     0.019 A 
ATOM     33  C18  11 d          -3.280 208.254 109.930  0.00  0.00     0.005 A 
ATOM     34  C19  11 d          -4.149 207.901 110.971  0.00  0.00     0.051 A 
ENDBRANCH  27  29
ENDBRANCH  24  27
ENDBRANCH   4  24
TORSDOF 5
ENDMDL
MODEL 5
REMARK VINA RESULT:      -9.7      6.285     12.399
REMARK  5 active torsions:
REMARK  status: ('A' for Active; 'I' for Inactive)
REMARK    1  A    between atoms: C10_14  and  N3_15 
REMARK    2  A    between atoms: N3_15  and  C11_16 
REMARK    3  A    between atoms: C14_19  and  S2_20 
REMARK    4  A    between atoms: S2_20  and  N4_23 
REMARK    5  A    between atoms: N4_23  and  C15_24 
ROOT
ATOM      1  C11  11 d          -7.644 208.431 112.936  0.00  0.00     0.032 A 
ATOM      2  C12  11 d          -6.999 208.198 111.704  0.00  0.00     0.031 A 
ATOM      3  C13  11 d          -5.603 208.286 111.599  0.00  0.00     0.027 A 
ATOM      4  C14  11 d          -4.829 208.582 112.732  0.00  0.00     0.080 A 
ATOM      5  C20  11 d          -5.451 208.712 113.983  0.00  0.00     0.027 A 
ATOM      6  C21  11 d          -6.848 208.632 114.087  0.00  0.00     0.031 A 
ENDROOT
BRANCH   1   7
ATOM      7  N3   11 d          -9.036 208.508 112.960  0.00  0.00    -0.365 N 
ATOM      8  H6   11 d          -9.488 208.697 113.828  0.00  0.00     0.165 HD
BRANCH   7   9
ATOM      9  C10  11 d          -9.863 208.354 111.858  0.00  0.00     0.106 C 
ATOM     10  C1   11 d         -11.071 207.736 111.807  0.00  0.00     0.061 A 
ATOM     11  C2   11 d         -11.980 207.174 112.853  0.00  0.00     0.027 A 
ATOM     12  C9   11 d         -11.727 207.376 110.532  0.00  0.00     0.258 A 
ATOM     13  C3   11 d         -12.090 207.276 114.254  0.00  0.00     0.048 A 
ATOM     14  C8   11 d         -12.973 206.436 112.190  0.00  0.00     0.048 A 
ATOM     15  C4   11 d         -13.060 206.563 114.956  0.00  0.00     0.075 A 
ATOM     16  S1   11 d         -11.338 208.093 115.252  0.00  0.00    -0.080 SA
ATOM     17  N1   11 d         -12.990 206.797 116.293  0.00  0.00    -0.253 NA
ATOM     18  C6   11 d         -13.993 205.754 114.289  0.00  0.00     0.035 A 
ATOM     19  C5   11 d         -12.000 207.693 116.539  0.00  0.00     0.167 A 
ATOM     20  C7   11 d         -13.965 205.712 112.880  0.00  0.00     0.033 A 
ATOM     21  N2   11 d         -12.857 206.577 110.758  0.00  0.00    -0.322 N 
ATOM     22  H4   11 d         -13.515 206.155 110.023  0.00  0.00     0.169 HD
ATOM     23  O1   11 d         -11.333 207.716 109.362  0.00  0.00    -0.267 OA
ENDBRANCH   7   9
ENDBRANCH   1   7
BRANCH   4  24
ATOM     24  S2   11 d          -3.058 208.861 112.588  0.00  0.00     0.264 S 
ATOM     25  O2   11 d          -2.381 208.320 113.848  0.00  0.00    -0.200 OA
ATOM     26  O3   11 d          -2.772 210.365 112.540  0.00  0.00    -0.200 OA
BRANCH  24  27
ATOM     27  N4   11 d          -2.377 208.130 111.230  0.00  0.00    -0.264 N 
ATOM     28  H9   11 d          -2.063 207.193 111.324  0.00  0.00     0.180 HD
BRANCH  27  29
ATOM     29  C15  11 d          -2.233 208.753 110.000  0.00  0.00     0.136 A 
ATOM     30  N5   11 d          -0.973 209.148 109.640  0.00  0.00    -0.243 NA
ATOM     31  C16  11 d          -0.707 209.764 108.452  0.00  0.00     0.119 A 
ATOM     32  C17  11 d          -1.745 210.019 107.548  0.00  0.00     0.019 A 
ATOM     33  C18  11 d          -3.049 209.634 107.881  0.00  0.00     0.005 A 
ATOM     34  C19  11 d          -3.300 208.997 109.104  0.00  0.00     0.051 A 
ENDBRANCH  27  29
ENDBRANCH  24  27
ENDBRANCH   4  24
TORSDOF 5
ENDMDL
MODEL 6
REMARK VINA RESULT:      -9.6      5.895      9.746
REMARK  5 active torsions:
REMARK  status: ('A' for Active; 'I' for Inactive)
REMARK    1  A    between atoms: C10_14  and  N3_15 
REMARK    2  A    between atoms: N3_15  and  C11_16 
REMARK    3  A    between atoms: C14_19  and  S2_20 
REMARK    4  A    between atoms: S2_20  and  N4_23 
REMARK    5  A    between atoms: N4_23  and  C15_24 
ROOT
ATOM      1  C11  11 d          -8.223 209.038 113.595  0.00  0.00     0.032 A 
ATOM      2  C12  11 d          -8.911 208.383 112.552  0.00  0.00     0.031 A 
ATOM      3  C13  11 d         -10.211 207.896 112.750  0.00  0.00     0.027 A 
ATOM      4  C14  11 d         -10.853 208.079 113.984  0.00  0.00     0.080 A 
ATOM      5  C20  11 d         -10.218 208.820 114.993  0.00  0.00     0.027 A 
ATOM      6  C21  11 d          -8.914 209.302 114.799  0.00  0.00     0.031 A 
ENDROOT
BRANCH   1   7
ATOM      7  N3   11 d          -6.875 209.349 113.417  0.00  0.00    -0.365 N 
ATOM      8  H6   11 d          -6.488 210.108 113.934  0.00  0.00     0.165 HD
BRANCH   7   9
ATOM      9  C10  11 d          -6.005 208.674 112.575  0.00  0.00     0.106 C 
ATOM     10  C1   11 d          -4.758 208.219 112.861  0.00  0.00     0.061 A 
ATOM     11  C2   11 d          -3.966 208.127 114.125  0.00  0.00     0.027 A 
ATOM     12  C9   11 d          -3.812 207.776 111.813  0.00  0.00     0.258 A 
ATOM     13  C3   11 d          -4.250 208.218 115.503  0.00  0.00     0.048 A 
ATOM     14  C8   11 d          -2.647 207.804 113.769  0.00  0.00     0.048 A 
ATOM     15  C4   11 d          -3.238 208.127 116.456  0.00  0.00     0.075 A 
ATOM     16  S1   11 d          -5.537 208.373 116.242  0.00  0.00    -0.080 SA
ATOM     17  N1   11 d          -3.723 208.246 117.720  0.00  0.00    -0.253 NA
ATOM     18  C6   11 d          -1.905 207.893 116.083  0.00  0.00     0.035 A 
ATOM     19  C5   11 d          -5.072 208.390 117.670  0.00  0.00     0.167 A 
ATOM     20  C7   11 d          -1.610 207.702 114.718  0.00  0.00     0.033 A 
ATOM     21  N2   11 d          -2.539 207.547 112.353  0.00  0.00    -0.322 N 
ATOM     22  H4   11 d          -1.655 207.237 111.829  0.00  0.00     0.169 HD
ATOM     23  O1   11 d          -4.083 207.628 110.570  0.00  0.00    -0.267 OA
ENDBRANCH   7   9
ENDBRANCH   1   7
BRANCH   4  24
ATOM     24  S2   11 d         -12.450 207.321 114.312  0.00  0.00     0.264 S 
ATOM     25  O2   11 d         -13.494 208.433 114.441  0.00  0.00    -0.200 OA
ATOM     26  O3   11 d         -12.411 206.588 115.656  0.00  0.00    -0.200 OA
BRANCH  24  27
ATOM     27  N4   11 d         -12.933 206.241 113.112  0.00  0.00    -0.264 N 
ATOM     28  H9   11 d         -12.317 205.493 112.894  0.00  0.00     0.180 HD
BRANCH  27  29
ATOM     29  C15  11 d         -14.131 206.331 112.418  0.00  0.00     0.136 A 
ATOM     30  N5   11 d         -15.258 205.888 113.055  0.00  0.00    -0.243 NA
ATOM     31  C16  11 d         -16.494 205.932 112.477  0.00  0.00     0.119 A 
ATOM     32  C17  11 d         -16.642 206.442 111.181  0.00  0.00     0.019 A 
ATOM     33  C18  11 d         -15.511 206.901 110.496  0.00  0.00     0.005 A 
ATOM     34  C19  11 d         -14.253 206.852 111.110  0.00  0.00     0.051 A 
ENDBRANCH  27  29
ENDBRANCH  24  27
ENDBRANCH   4  24
TORSDOF 5
ENDMDL
MODEL 7
REMARK VINA RESULT:      -9.5      1.761      2.340
REMARK  5 active torsions:
REMARK  status: ('A' for Active; 'I' for Inactive)
REMARK    1  A    between atoms: C10_14  and  N3_15 
REMARK    2  A    between atoms: N3_15  and  C11_16 
REMARK    3  A    between atoms: C14_19  and  S2_20 
REMARK    4  A    between atoms: S2_20  and  N4_23 
REMARK    5  A    between atoms: N4_23  and  C15_24 
ROOT
ATOM      1  C11  11 d         -13.886 204.885 117.295  0.00  0.00     0.032 A 
ATOM      2  C12  11 d         -13.786 205.556 118.532  0.00  0.00     0.031 A 
ATOM      3  C13  11 d         -14.518 205.117 119.644  0.00  0.00     0.027 A 
ATOM      4  C14  11 d         -15.342 203.986 119.545  0.00  0.00     0.080 A 
ATOM      5  C20  11 d         -15.369 203.250 118.349  0.00  0.00     0.027 A 
ATOM      6  C21  11 d         -14.642 203.692 117.234  0.00  0.00     0.031 A 
ENDROOT
BRANCH   1   7
ATOM      7  N3   11 d         -13.284 205.453 116.173  0.00  0.00    -0.365 N 
ATOM      8  H6   11 d         -13.475 205.059 115.278  0.00  0.00     0.165 HD
BRANCH   7   9
ATOM      9  C10  11 d         -12.433 206.548 116.193  0.00  0.00     0.106 C 
ATOM     10  C1   11 d         -11.850 207.166 115.133  0.00  0.00     0.061 A 
ATOM     11  C2   11 d         -12.009 207.029 113.653  0.00  0.00     0.027 A 
ATOM     12  C9   11 d         -10.741 208.132 115.286  0.00  0.00     0.258 A 
ATOM     13  C3   11 d         -12.952 206.435 112.790  0.00  0.00     0.048 A 
ATOM     14  C8   11 d         -10.965 207.749 113.053  0.00  0.00     0.048 A 
ATOM     15  C4   11 d         -12.774 206.449 111.407  0.00  0.00     0.075 A 
ATOM     16  S1   11 d         -14.251 205.753 113.059  0.00  0.00    -0.080 SA
ATOM     17  N1   11 d         -13.791 205.818 110.763  0.00  0.00    -0.253 NA
ATOM     18  C6   11 d         -11.676 207.096 110.822  0.00  0.00     0.035 A 
ATOM     19  C5   11 d         -14.700 205.385 111.673  0.00  0.00     0.167 A 
ATOM     20  C7   11 d         -10.770 207.781 111.657  0.00  0.00     0.033 A 
ATOM     21  N2   11 d         -10.193 208.467 114.040  0.00  0.00    -0.322 N 
ATOM     22  H4   11 d          -9.370 209.128 113.846  0.00  0.00     0.169 HD
ATOM     23  O1   11 d         -10.303 208.604 116.393  0.00  0.00    -0.267 OA
ENDBRANCH   7   9
ENDBRANCH   1   7
BRANCH   4  24
ATOM     24  S2   11 d         -16.413 203.505 120.907  0.00  0.00     0.264 S 
ATOM     25  O2   11 d         -15.629 203.653 122.212  0.00  0.00    -0.200 OA
ATOM     26  O3   11 d         -16.786 202.026 120.777  0.00  0.00    -0.200 OA
BRANCH  24  27
ATOM     27  N4   11 d         -17.825 204.421 120.998  0.00  0.00    -0.264 N 
ATOM     28  H9   11 d         -18.171 204.815 120.155  0.00  0.00     0.180 HD
BRANCH  27  29
ATOM     29  C15  11 d         -18.529 204.651 122.171  0.00  0.00     0.136 A 
ATOM     30  N5   11 d         -19.415 203.687 122.570  0.00  0.00    -0.243 NA
ATOM     31  C16  11 d         -20.159 203.798 123.709  0.00  0.00     0.119 A 
ATOM     32  C17  11 d         -20.035 204.935 124.517  0.00  0.00     0.019 A 
ATOM     33  C18  11 d         -19.142 205.945 124.140  0.00  0.00     0.005 A 
ATOM     34  C19  11 d         -18.384 205.808 122.969  0.00  0.00     0.051 A 
ENDBRANCH  27  29
ENDBRANCH  24  27
ENDBRANCH   4  24
TORSDOF 5
ENDMDL
MODEL 8
REMARK VINA RESULT:      -9.1      5.673      8.925
REMARK  5 active torsions:
REMARK  status: ('A' for Active; 'I' for Inactive)
REMARK    1  A    between atoms: C10_14  and  N3_15 
REMARK    2  A    between atoms: N3_15  and  C11_16 
REMARK    3  A    between atoms: C14_19  and  S2_20 
REMARK    4  A    between atoms: S2_20  and  N4_23 
REMARK    5  A    between atoms: N4_23  and  C15_24 
ROOT
ATOM      1  C11  11 d          -9.315 208.383 116.911  0.00  0.00     0.032 A 
ATOM      2  C12  11 d          -9.669 208.713 115.586  0.00  0.00     0.031 A 
ATOM      3  C13  11 d         -10.966 208.470 115.111  0.00  0.00     0.027 A 
ATOM      4  C14  11 d         -11.937 207.919 115.962  0.00  0.00     0.080 A 
ATOM      5  C20  11 d         -11.625 207.684 117.310  0.00  0.00     0.027 A 
ATOM      6  C21  11 d         -10.325 207.920 117.784  0.00  0.00     0.031 A 
ENDROOT
BRANCH   1   7
ATOM      7  N3   11 d          -7.976 208.474 117.290  0.00  0.00    -0.365 N 
ATOM      8  H6   11 d          -7.505 209.345 117.171  0.00  0.00     0.165 HD
BRANCH   7   9
ATOM      9  C10  11 d          -7.229 207.443 117.838  0.00  0.00     0.106 C 
ATOM     10  C1   11 d          -6.088 206.892 117.348  0.00  0.00     0.061 A 
ATOM     11  C2   11 d          -5.179 207.255 116.218  0.00  0.00     0.027 A 
ATOM     12  C9   11 d          -5.541 205.615 117.854  0.00  0.00     0.258 A 
ATOM     13  C3   11 d          -4.982 208.389 115.406  0.00  0.00     0.048 A 
ATOM     14  C8   11 d          -4.297 206.179 116.031  0.00  0.00     0.048 A 
ATOM     15  C4   11 d          -4.044 208.384 114.374  0.00  0.00     0.075 A 
ATOM     16  S1   11 d          -5.598 209.748 115.433  0.00  0.00    -0.080 SA
ATOM     17  N1   11 d          -4.019 209.570 113.712  0.00  0.00    -0.253 NA
ATOM     18  C6   11 d          -3.229 207.267 114.138  0.00  0.00     0.035 A 
ATOM     19  C5   11 d          -4.906 210.423 114.284  0.00  0.00     0.167 A 
ATOM     20  C7   11 d          -3.339 206.156 114.998  0.00  0.00     0.033 A 
ATOM     21  N2   11 d          -4.479 205.173 117.052  0.00  0.00    -0.322 N 
ATOM     22  H4   11 d          -3.904 204.274 117.167  0.00  0.00     0.169 HD
ATOM     23  O1   11 d          -5.966 204.965 118.872  0.00  0.00    -0.267 OA
ENDBRANCH   7   9
ENDBRANCH   1   7
BRANCH   4  24
ATOM     24  S2   11 d         -13.553 207.449 115.330  0.00  0.00     0.264 S 
ATOM     25  O2   11 d         -14.389 208.718 115.152  0.00  0.00    -0.200 OA
ATOM     26  O3   11 d         -14.279 206.577 116.358  0.00  0.00    -0.200 OA
BRANCH  24  27
ATOM     27  N4   11 d         -13.479 206.620 113.864  0.00  0.00    -0.264 N 
ATOM     28  H9   11 d         -12.643 206.124 113.659  0.00  0.00     0.180 HD
BRANCH  27  29
ATOM     29  C15  11 d         -14.508 206.588 112.935  0.00  0.00     0.136 A 
ATOM     30  N5   11 d         -15.689 206.018 113.327  0.00  0.00    -0.243 NA
ATOM     31  C16  11 d         -16.775 205.935 112.504  0.00  0.00     0.119 A 
ATOM     32  C17  11 d         -16.704 206.440 111.200  0.00  0.00     0.019 A 
ATOM     33  C18  11 d         -15.511 207.027 110.760  0.00  0.00     0.005 A 
ATOM     34  C19  11 d         -14.411 207.107 111.623  0.00  0.00     0.051 A 
ENDBRANCH  27  29
ENDBRANCH  24  27
ENDBRANCH   4  24
TORSDOF 5
ENDMDL
MODEL 9
REMARK VINA RESULT:      -9.0      1.805      2.522
REMARK  5 active torsions:
REMARK  status: ('A' for Active; 'I' for Inactive)
REMARK    1  A    between atoms: C10_14  and  N3_15 
REMARK    2  A    between atoms: N3_15  and  C11_16 
REMARK    3  A    between atoms: C14_19  and  S2_20 
REMARK    4  A    between atoms: S2_20  and  N4_23 
REMARK    5  A    between atoms: N4_23  and  C15_24 
ROOT
ATOM      1  C11  11 d         -14.025 205.943 118.516  0.00  0.00     0.032 A 
ATOM      2  C12  11 d         -14.528 204.695 118.942  0.00  0.00     0.031 A 
ATOM      3  C13  11 d         -15.207 204.578 120.163  0.00  0.00     0.027 A 
ATOM      4  C14  11 d         -15.417 205.711 120.965  0.00  0.00     0.080 A 
ATOM      5  C20  11 d         -15.013 206.973 120.502  0.00  0.00     0.027 A 
ATOM      6  C21  11 d         -14.327 207.090 119.284  0.00  0.00     0.031 A 
ENDROOT
BRANCH   1   7
ATOM      7  N3   11 d         -13.206 205.985 117.388  0.00  0.00    -0.365 N 
ATOM      8  H6   11 d         -13.347 205.308 116.671  0.00  0.00     0.165 HD
BRANCH   7   9
ATOM      9  C10  11 d         -12.200 206.913 117.167  0.00  0.00     0.106 C 
ATOM     10  C1   11 d         -11.678 207.303 115.975  0.00  0.00     0.061 A 
ATOM     11  C2   11 d         -12.055 207.035 114.554  0.00  0.00     0.027 A 
ATOM     12  C9   11 d         -10.420 208.075 115.873  0.00  0.00     0.258 A 
ATOM     13  C3   11 d         -13.188 206.522 113.891  0.00  0.00     0.048 A 
ATOM     14  C8   11 d         -11.003 207.497 113.749  0.00  0.00     0.048 A 
ATOM     15  C4   11 d         -13.201 206.356 112.507  0.00  0.00     0.075 A 
ATOM     16  S1   11 d         -14.530 206.107 114.395  0.00  0.00    -0.080 SA
ATOM     17  N1   11 d         -14.381 205.843 112.072  0.00  0.00    -0.253 NA
ATOM     18  C6   11 d         -12.104 206.738 111.719  0.00  0.00     0.035 A 
ATOM     19  C5   11 d         -15.214 205.674 113.130  0.00  0.00     0.167 A 
ATOM     20  C7   11 d         -10.997 207.343 112.348  0.00  0.00     0.033 A 
ATOM     21  N2   11 d         -10.001 208.174 114.538  0.00  0.00    -0.322 N 
ATOM     22  H4   11 d          -9.119 208.658 114.166  0.00  0.00     0.169 HD
ATOM     23  O1   11 d          -9.767 208.582 116.851  0.00  0.00    -0.267 OA
ENDBRANCH   7   9
ENDBRANCH   1   7
BRANCH   4  24
ATOM     24  S2   11 d         -16.137 205.556 122.605  0.00  0.00     0.264 S 
ATOM     25  O2   11 d         -15.379 206.486 123.554  0.00  0.00    -0.200 OA
ATOM     26  O3   11 d         -15.939 204.130 123.127  0.00  0.00    -0.200 OA
BRANCH  24  27
ATOM     27  N4   11 d         -17.780 205.932 122.649  0.00  0.00    -0.264 N 
ATOM     28  H9   11 d         -18.049 206.748 123.147  0.00  0.00     0.180 HD
BRANCH  27  29
ATOM     29  C15  11 d         -18.768 205.178 122.034  0.00  0.00     0.136 A 
ATOM     30  N5   11 d         -19.290 204.130 122.744  0.00  0.00    -0.243 NA
ATOM     31  C16  11 d         -20.271 203.322 122.246  0.00  0.00     0.119 A 
ATOM     32  C17  11 d         -20.779 203.549 120.961  0.00  0.00     0.019 A 
ATOM     33  C18  11 d         -20.269 204.609 120.204  0.00  0.00     0.005 A 
ATOM     34  C19  11 d         -19.265 205.430 120.735  0.00  0.00     0.051 A 
ENDBRANCH  27  29
ENDBRANCH  24  27
ENDBRANCH   4  24
TORSDOF 5
ENDMDL
MODEL 10
REMARK VINA RESULT:      -8.8      5.964      9.729
REMARK  5 active torsions:
REMARK  status: ('A' for Active; 'I' for Inactive)
REMARK    1  A    between atoms: C10_14  and  N3_15 
REMARK    2  A    between atoms: N3_15  and  C11_16 
REMARK    3  A    between atoms: C14_19  and  S2_20 
REMARK    4  A    between atoms: S2_20  and  N4_23 
REMARK    5  A    between atoms: N4_23  and  C15_24 
ROOT
ATOM      1  C11  11 d          -9.158 209.112 114.275  0.00  0.00     0.032 A 
ATOM      2  C12  11 d          -8.903 209.315 112.902  0.00  0.00     0.031 A 
ATOM      3  C13  11 d          -9.735 208.743 111.929  0.00  0.00     0.027 A 
ATOM      4  C14  11 d         -10.849 207.981 112.313  0.00  0.00     0.080 A 
ATOM      5  C20  11 d         -11.171 207.860 113.673  0.00  0.00     0.027 A 
ATOM      6  C21  11 d         -10.336 208.426 114.648  0.00  0.00     0.031 A 
ENDROOT
BRANCH   1   7
ATOM      7  N3   11 d          -8.214 209.547 115.203  0.00  0.00    -0.365 N 
ATOM      8  H6   11 d          -8.534 209.963 116.050  0.00  0.00     0.165 HD
BRANCH   7   9
ATOM      9  C10  11 d          -6.839 209.439 115.054  0.00  0.00     0.106 C 
ATOM     10  C1   11 d          -5.920 209.160 116.014  0.00  0.00     0.061 A 
ATOM     11  C2   11 d          -6.026 208.735 117.443  0.00  0.00     0.027 A 
ATOM     12  C9   11 d          -4.468 209.355 115.805  0.00  0.00     0.258 A 
ATOM     13  C3   11 d          -7.046 208.221 118.269  0.00  0.00     0.048 A 
ATOM     14  C8   11 d          -4.745 208.839 118.006  0.00  0.00     0.048 A 
ATOM     15  C4   11 d          -6.818 207.962 119.620  0.00  0.00     0.075 A 
ATOM     16  S1   11 d          -8.453 207.821 117.976  0.00  0.00    -0.080 SA
ATOM     17  N1   11 d          -7.930 207.480 120.235  0.00  0.00    -0.253 NA
ATOM     18  C6   11 d          -5.553 208.157 120.195  0.00  0.00     0.035 A 
ATOM     19  C5   11 d          -8.932 207.367 119.326  0.00  0.00     0.167 A 
ATOM     20  C7   11 d          -4.492 208.577 119.367  0.00  0.00     0.033 A 
ATOM     21  N2   11 d          -3.763 209.185 117.005  0.00  0.00    -0.322 N 
ATOM     22  H4   11 d          -2.705 209.283 117.160  0.00  0.00     0.169 HD
ATOM     23  O1   11 d          -3.902 209.657 114.697  0.00  0.00    -0.267 OA
ENDBRANCH   7   9
ENDBRANCH   1   7
BRANCH   4  24
ATOM     24  S2   11 d         -11.830 207.104 111.087  0.00  0.00     0.264 S 
ATOM     25  O2   11 d         -11.896 205.629 111.488  0.00  0.00    -0.200 OA
ATOM     26  O3   11 d         -11.133 207.165 109.724  0.00  0.00    -0.200 OA
BRANCH  24  27
ATOM     27  N4   11 d         -13.395 207.710 110.930  0.00  0.00    -0.264 N 
ATOM     28  H9   11 d         -13.514 208.538 110.396  0.00  0.00     0.180 HD
BRANCH  27  29
ATOM     29  C15  11 d         -14.518 207.122 111.494  0.00  0.00     0.136 A 
ATOM     30  N5   11 d         -14.551 207.016 112.858  0.00  0.00    -0.243 NA
ATOM     31  C16  11 d         -15.605 206.463 113.527  0.00  0.00     0.119 A 
ATOM     32  C17  11 d         -16.706 205.973 112.814  0.00  0.00     0.019 A 
ATOM     33  C18  11 d         -16.707 206.060 111.417  0.00  0.00     0.005 A 
ATOM     34  C19  11 d         -15.618 206.636 110.750  0.00  0.00     0.051 A 
ENDBRANCH  27  29
ENDBRANCH  24  27
ENDBRANCH   4  24
TORSDOF 5
ENDMDL
