MODEL 1
REMARK VINA RESULT:     -10.5      0.000      0.000
REMARK  6 active torsions:
REMARK  status: ('A' for Active; 'I' for Inactive)
REMARK    1  A    between atoms: C1_1  and  C2_2 
REMARK       I    between atoms: C1_1  and  N1_9 
REMARK    2  A    between atoms: N1_9  and  N2_10 
REMARK    3  A    between atoms: N1_9  and  C19_24 
REMARK    4  A    between atoms: C19_24  and  C20_25 
REMARK    5  A    between atoms: C20_25  and  C21_26 
REMARK    6  A    between atoms: C23_28  and  O3_29 
ROOT
ATOM      1  C1   11 d         -13.062 207.152 117.338  0.00  0.00     0.273 C 
ATOM      2  N1   11 d         -12.477 207.076 116.031  0.00  0.00    -0.237 N 
ATOM      3  O5   11 d         -14.090 207.904 117.501  0.00  0.00    -0.266 OA
ENDROOT
BRANCH   2   4
ATOM      4  N2   11 d         -13.350 206.917 114.917  0.00  0.00    -0.184 N 
ATOM      5  C8   11 d         -14.060 205.777 114.547  0.00  0.00     0.251 C 
ATOM      6  O1   11 d         -14.943 205.195 115.270  0.00  0.00    -0.271 OA
ATOM      7  C9   11 d         -13.828 205.578 113.076  0.00  0.00     0.102 C 
ATOM      8  C10  11 d         -13.569 207.081 112.605  0.00  0.00     0.102 C 
ATOM      9  C15  11 d         -14.992 204.953 112.241  0.00  0.00     0.026 C 
ATOM     10  C11  11 d         -13.687 207.817 113.917  0.00  0.00     0.251 C 
ATOM     11  C12  11 d         -14.574 207.444 111.465  0.00  0.00     0.026 C 
ATOM     12  O2   11 d         -14.255 208.947 114.114  0.00  0.00    -0.271 OA
ATOM     13  C13  11 d         -14.317 206.383 110.391  0.00  0.00    -0.024 C 
ATOM     14  C17  11 d         -16.026 207.274 112.029  0.00  0.00    -0.001 A 
ATOM     15  C14  11 d         -14.529 205.102 110.791  0.00  0.00    -0.024 C 
ATOM     16  C16  11 d         -16.291 205.804 112.466  0.00  0.00    -0.001 A 
ATOM     17  C18  11 d         -17.118 206.452 111.352  0.00  0.00     0.011 A 
ENDBRANCH   2   4
BRANCH   2  18
ATOM     18  C19  11 d         -10.995 207.161 115.768  0.00  0.00     0.237 C 
BRANCH  18  19
ATOM     19  C20  11 d         -10.426 208.504 115.338  0.00  0.00     0.179 C 
ATOM     20  O4   11 d         -10.757 209.532 115.984  0.00  0.00    -0.290 OA
BRANCH  19  21
ATOM     21  C21  11 d          -9.395 208.624 114.258  0.00  0.00     0.014 A 
ATOM     22  C22  11 d          -8.112 209.142 114.556  0.00  0.00     0.052 A 
ATOM     23  C23  11 d          -7.151 209.318 113.546  0.00  0.00     0.069 A 
ATOM     24  C25  11 d          -7.472 208.987 112.219  0.00  0.00     0.037 A 
ATOM     25  C26  11 d          -8.728 208.450 111.910  0.00  0.00     0.004 A 
ATOM     26  C27  11 d          -9.685 208.271 112.920  0.00  0.00     0.015 A 
BRANCH  23  27
ATOM     27  O3   11 d          -5.902 209.920 113.864  0.00  0.00    -0.356 OA
ATOM     28  C24  11 d          -5.961 210.605 115.144  0.00  0.00     0.210 C 
ENDBRANCH  23  27
ENDBRANCH  19  21
ENDBRANCH  18  19
ENDBRANCH   2  18
BRANCH   1  29
ATOM     29  C2   11 d         -12.487 206.435 118.517  0.00  0.00     0.034 A 
ATOM     30  C3   11 d         -13.348 205.895 119.497  0.00  0.00     0.019 A 
ATOM     31  C4   11 d         -12.829 205.326 120.670  0.00  0.00     0.025 A 
ATOM     32  C5   11 d         -11.442 205.280 120.876  0.00  0.00     0.034 A 
ATOM     33 Cl1   11 d         -10.785 204.600 122.387  0.00  0.00    -0.084 Cl
ATOM     34  C6   11 d         -10.574 205.775 119.892  0.00  0.00     0.025 A 
ATOM     35  C7   11 d         -11.090 206.338 118.714  0.00  0.00     0.019 A 
ENDBRANCH   1  29
TORSDOF 6
ENDMDL
MODEL 2
REMARK VINA RESULT:     -10.3      1.412      1.765
REMARK  6 active torsions:
REMARK  status: ('A' for Active; 'I' for Inactive)
REMARK    1  A    between atoms: C1_1  and  C2_2 
REMARK       I    between atoms: C1_1  and  N1_9 
REMARK    2  A    between atoms: N1_9  and  N2_10 
REMARK    3  A    between atoms: N1_9  and  C19_24 
REMARK    4  A    between atoms: C19_24  and  C20_25 
REMARK    5  A    between atoms: C20_25  and  C21_26 
REMARK    6  A    between atoms: C23_28  and  O3_29 
ROOT
ATOM      1  C1   11 d         -12.132 207.650 116.937  0.00  0.00     0.273 C 
ATOM      2  N1   11 d         -11.998 208.014 115.557  0.00  0.00    -0.237 N 
ATOM      3  O5   11 d         -13.289 207.758 117.484  0.00  0.00    -0.266 OA
ENDROOT
BRANCH   2   4
ATOM      4  N2   11 d         -12.988 207.550 114.645  0.00  0.00    -0.184 N 
ATOM      5  C8   11 d         -13.404 206.237 114.434  0.00  0.00     0.251 C 
ATOM      6  O1   11 d         -13.930 205.481 115.325  0.00  0.00    -0.271 OA
ATOM      7  C9   11 d         -13.414 206.016 112.948  0.00  0.00     0.102 C 
ATOM      8  C10  11 d         -13.686 207.499 112.424  0.00  0.00     0.102 C 
ATOM      9  C15  11 d         -14.492 205.043 112.371  0.00  0.00     0.026 C 
ATOM     10  C11  11 d         -13.753 208.256 113.728  0.00  0.00     0.251 C 
ATOM     11  C12  11 d         -14.954 207.498 111.510  0.00  0.00     0.026 C 
ATOM     12  O2   11 d         -14.567 209.196 114.029  0.00  0.00    -0.271 OA
ATOM     13  C13  11 d         -14.619 206.482 110.413  0.00  0.00    -0.024 C 
ATOM     14  C17  11 d         -16.160 206.970 112.358  0.00  0.00    -0.001 A 
ATOM     15  C14  11 d         -14.379 205.221 110.856  0.00  0.00    -0.024 C 
ATOM     16  C16  11 d         -15.910 205.515 112.850  0.00  0.00    -0.001 A 
ATOM     17  C18  11 d         -17.085 205.838 111.923  0.00  0.00     0.011 A 
ENDBRANCH   2   4
BRANCH   2  18
ATOM     18  C19  11 d         -10.874 208.862 115.017  0.00  0.00     0.237 C 
BRANCH  18  19
ATOM     19  C20  11 d          -9.924 208.227 114.013  0.00  0.00     0.179 C 
ATOM     20  O4   11 d         -10.382 207.376 113.206  0.00  0.00    -0.290 OA
BRANCH  19  21
ATOM     21  C21  11 d          -8.501 208.669 113.873  0.00  0.00     0.014 A 
ATOM     22  C22  11 d          -7.954 209.601 114.787  0.00  0.00     0.052 A 
ATOM     23  C23  11 d          -6.639 210.074 114.639  0.00  0.00     0.069 A 
ATOM     24  C25  11 d          -5.859 209.627 113.559  0.00  0.00     0.037 A 
ATOM     25  C26  11 d          -6.376 208.686 112.659  0.00  0.00     0.004 A 
ATOM     26  C27  11 d          -7.687 208.211 112.811  0.00  0.00     0.015 A 
BRANCH  23  27
ATOM     27  O3   11 d          -6.148 211.074 115.524  0.00  0.00    -0.356 OA
ATOM     28  C24  11 d          -5.630 210.483 116.746  0.00  0.00     0.210 C 
ENDBRANCH  23  27
ENDBRANCH  19  21
ENDBRANCH  18  19
ENDBRANCH   2  18
BRANCH   1  29
ATOM     29  C2   11 d         -10.970 207.206 117.766  0.00  0.00     0.034 A 
ATOM     30  C3   11 d         -11.168 206.272 118.807  0.00  0.00     0.019 A 
ATOM     31  C4   11 d         -10.117 205.935 119.675  0.00  0.00     0.025 A 
ATOM     32  C5   11 d          -8.852 206.518 119.508  0.00  0.00     0.034 A 
ATOM     33 Cl1   11 d          -7.531 206.124 120.637  0.00  0.00    -0.084 Cl
ATOM     34  C6   11 d          -8.631 207.414 118.453  0.00  0.00     0.025 A 
ATOM     35  C7   11 d          -9.678 207.748 117.579  0.00  0.00     0.019 A 
ENDBRANCH   1  29
TORSDOF 6
ENDMDL
MODEL 3
REMARK VINA RESULT:      -9.9      2.930      6.197
REMARK  6 active torsions:
REMARK  status: ('A' for Active; 'I' for Inactive)
REMARK    1  A    between atoms: C1_1  and  C2_2 
REMARK       I    between atoms: C1_1  and  N1_9 
REMARK    2  A    between atoms: N1_9  and  N2_10 
REMARK    3  A    between atoms: N1_9  and  C19_24 
REMARK    4  A    between atoms: C19_24  and  C20_25 
REMARK    5  A    between atoms: C20_25  and  C21_26 
REMARK    6  A    between atoms: C23_28  and  O3_29 
ROOT
ATOM      1  C1   11 d         -11.858 206.236 116.459  0.00  0.00     0.273 C 
ATOM      2  N1   11 d         -13.255 206.548 116.378  0.00  0.00    -0.237 N 
ATOM      3  O5   11 d         -11.413 205.255 115.760  0.00  0.00    -0.266 OA
ENDROOT
BRANCH   2   4
ATOM      4  N2   11 d         -13.858 206.585 115.089  0.00  0.00    -0.184 N 
ATOM      5  C8   11 d         -14.727 205.652 114.528  0.00  0.00     0.251 C 
ATOM      6  O1   11 d         -15.872 205.332 115.008  0.00  0.00    -0.271 OA
ATOM      7  C9   11 d         -14.219 205.360 113.144  0.00  0.00     0.102 C 
ATOM      8  C10  11 d         -13.487 206.734 112.795  0.00  0.00     0.102 C 
ATOM      9  C15  11 d         -15.278 205.027 112.043  0.00  0.00     0.026 C 
ATOM     10  C11  11 d         -13.716 207.513 114.067  0.00  0.00     0.251 C 
ATOM     11  C12  11 d         -14.077 207.309 111.466  0.00  0.00     0.026 C 
ATOM     12  O2   11 d         -14.009 208.755 114.165  0.00  0.00    -0.271 OA
ATOM     13  C13  11 d         -13.854 206.188 110.447  0.00  0.00    -0.024 C 
ATOM     14  C17  11 d         -15.614 207.528 111.675  0.00  0.00    -0.001 A 
ATOM     15  C14  11 d         -14.470 205.014 110.744  0.00  0.00    -0.024 C 
ATOM     16  C16  11 d         -16.336 206.185 111.991  0.00  0.00    -0.001 A 
ATOM     17  C18  11 d         -16.691 206.991 110.737  0.00  0.00     0.011 A 
ENDBRANCH   2   4
BRANCH   2  18
ATOM     18  C19  11 d         -14.122 206.833 117.579  0.00  0.00     0.237 C 
BRANCH  18  19
ATOM     19  C20  11 d         -14.107 205.828 118.720  0.00  0.00     0.179 C 
ATOM     20  O4   11 d         -13.540 206.150 119.797  0.00  0.00    -0.290 OA
BRANCH  19  21
ATOM     21  C21  11 d         -14.846 204.528 118.647  0.00  0.00     0.014 A 
ATOM     22  C22  11 d         -15.617 204.088 119.749  0.00  0.00     0.052 A 
ATOM     23  C23  11 d         -16.270 202.844 119.723  0.00  0.00     0.069 A 
ATOM     24  C25  11 d         -16.146 202.018 118.594  0.00  0.00     0.037 A 
ATOM     25  C26  11 d         -15.407 202.450 117.484  0.00  0.00     0.004 A 
ATOM     26  C27  11 d         -14.759 203.693 117.509  0.00  0.00     0.015 A 
BRANCH  23  27
ATOM     27  O3   11 d         -16.966 202.393 120.880  0.00  0.00    -0.356 OA
ATOM     28  C24  11 d         -17.760 203.461 121.463  0.00  0.00     0.210 C 
ENDBRANCH  23  27
ENDBRANCH  19  21
ENDBRANCH  18  19
ENDBRANCH   2  18
BRANCH   1  29
ATOM     29  C2   11 d         -10.922 206.975 117.361  0.00  0.00     0.034 A 
ATOM     30  C3   11 d         -10.323 206.303 118.449  0.00  0.00     0.019 A 
ATOM     31  C4   11 d          -9.540 207.005 119.379  0.00  0.00     0.025 A 
ATOM     32  C5   11 d          -9.337 208.385 119.230  0.00  0.00     0.034 A 
ATOM     33 Cl1   11 d          -8.382 209.284 120.436  0.00  0.00    -0.084 Cl
ATOM     34  C6   11 d          -9.892 209.056 118.131  0.00  0.00     0.025 A 
ATOM     35  C7   11 d         -10.670 208.355 117.195  0.00  0.00     0.019 A 
ENDBRANCH   1  29
TORSDOF 6
ENDMDL
MODEL 4
REMARK VINA RESULT:      -9.4      2.960      6.319
REMARK  6 active torsions:
REMARK  status: ('A' for Active; 'I' for Inactive)
REMARK    1  A    between atoms: C1_1  and  C2_2 
REMARK       I    between atoms: C1_1  and  N1_9 
REMARK    2  A    between atoms: N1_9  and  N2_10 
REMARK    3  A    between atoms: N1_9  and  C19_24 
REMARK    4  A    between atoms: C19_24  and  C20_25 
REMARK    5  A    between atoms: C20_25  and  C21_26 
REMARK    6  A    between atoms: C23_28  and  O3_29 
ROOT
ATOM      1  C1   11 d         -11.928 206.158 116.745  0.00  0.00     0.273 C 
ATOM      2  N1   11 d         -13.345 206.374 116.679  0.00  0.00    -0.237 N 
ATOM      3  O5   11 d         -11.417 205.252 115.993  0.00  0.00    -0.266 OA
ENDROOT
BRANCH   2   4
ATOM      4  N2   11 d         -13.950 206.441 115.392  0.00  0.00    -0.184 N 
ATOM      5  C8   11 d         -14.739 205.476 114.770  0.00  0.00     0.251 C 
ATOM      6  O1   11 d         -15.852 205.032 115.226  0.00  0.00    -0.271 OA
ATOM      7  C9   11 d         -14.211 205.315 113.373  0.00  0.00     0.102 C 
ATOM      8  C10  11 d         -13.597 206.765 113.114  0.00  0.00     0.102 C 
ATOM      9  C15  11 d         -15.240 204.965 112.249  0.00  0.00     0.026 C 
ATOM     10  C11  11 d         -13.889 207.440 114.431  0.00  0.00     0.251 C 
ATOM     11  C12  11 d         -14.235 207.371 111.821  0.00  0.00     0.026 C 
ATOM     12  O2   11 d         -14.285 208.645 114.606  0.00  0.00    -0.271 OA
ATOM     13  C13  11 d         -13.921 206.338 110.734  0.00  0.00    -0.024 C 
ATOM     14  C17  11 d         -15.785 207.446 112.038  0.00  0.00    -0.001 A 
ATOM     15  C14  11 d         -14.435 205.101 110.956  0.00  0.00    -0.024 C 
ATOM     16  C16  11 d         -16.391 206.031 112.266  0.00  0.00    -0.001 A 
ATOM     17  C18  11 d         -16.814 206.881 111.064  0.00  0.00     0.011 A 
ENDBRANCH   2   4
BRANCH   2  18
ATOM     18  C19  11 d         -14.228 206.528 117.891  0.00  0.00     0.237 C 
BRANCH  18  19
ATOM     19  C20  11 d         -14.423 205.314 118.786  0.00  0.00     0.179 C 
ATOM     20  O4   11 d         -14.510 204.178 118.250  0.00  0.00    -0.290 OA
BRANCH  19  21
ATOM     21  C21  11 d         -14.390 205.412 120.280  0.00  0.00     0.014 A 
ATOM     22  C22  11 d         -15.562 205.761 120.994  0.00  0.00     0.052 A 
ATOM     23  C23  11 d         -15.538 205.916 122.390  0.00  0.00     0.069 A 
ATOM     24  C25  11 d         -14.332 205.734 123.088  0.00  0.00     0.037 A 
ATOM     25  C26  11 d         -13.169 205.364 122.400  0.00  0.00     0.004 A 
ATOM     26  C27  11 d         -13.195 205.206 121.006  0.00  0.00     0.015 A 
BRANCH  23  27
ATOM     27  O3   11 d         -16.711 206.351 123.068  0.00  0.00    -0.356 OA
ATOM     28  C24  11 d         -17.900 206.098 122.273  0.00  0.00     0.210 C 
ENDBRANCH  23  27
ENDBRANCH  19  21
ENDBRANCH  18  19
ENDBRANCH   2  18
BRANCH   1  29
ATOM     29  C2   11 d         -11.047 206.909 117.691  0.00  0.00     0.034 A 
ATOM     30  C3   11 d         -10.713 208.254 117.419  0.00  0.00     0.019 A 
ATOM     31  C4   11 d          -9.790 208.938 118.226  0.00  0.00     0.025 A 
ATOM     32  C5   11 d          -9.196 208.292 119.320  0.00  0.00     0.034 A 
ATOM     33 Cl1   11 d          -7.990 209.147 120.315  0.00  0.00    -0.084 Cl
ATOM     34  C6   11 d          -9.550 206.970 119.625  0.00  0.00     0.025 A 
ATOM     35  C7   11 d         -10.478 206.285 118.824  0.00  0.00     0.019 A 
ENDBRANCH   1  29
TORSDOF 6
ENDMDL
MODEL 5
REMARK VINA RESULT:      -9.0      3.107      7.102
REMARK  6 active torsions:
REMARK  status: ('A' for Active; 'I' for Inactive)
REMARK    1  A    between atoms: C1_1  and  C2_2 
REMARK       I    between atoms: C1_1  and  N1_9 
REMARK    2  A    between atoms: N1_9  and  N2_10 
REMARK    3  A    between atoms: N1_9  and  C19_24 
REMARK    4  A    between atoms: C19_24  and  C20_25 
REMARK    5  A    between atoms: C20_25  and  C21_26 
REMARK    6  A    between atoms: C23_28  and  O3_29 
ROOT
ATOM      1  C1   11 d         -13.717 205.633 117.030  0.00  0.00     0.273 C 
ATOM      2  N1   11 d         -13.253 206.530 118.049  0.00  0.00    -0.237 N 
ATOM      3  O5   11 d         -13.603 204.370 117.236  0.00  0.00    -0.266 OA
ENDROOT
BRANCH   2   4
ATOM      4  N2   11 d         -13.603 206.245 119.399  0.00  0.00    -0.184 N 
ATOM      5  C8   11 d         -12.930 205.420 120.298  0.00  0.00     0.251 C 
ATOM      6  O1   11 d         -11.722 205.592 120.690  0.00  0.00    -0.271 OA
ATOM      7  C9   11 d         -13.964 204.530 120.929  0.00  0.00     0.102 C 
ATOM      8  C10  11 d         -15.259 205.456 120.832  0.00  0.00     0.102 C 
ATOM      9  C15  11 d         -13.731 204.096 122.413  0.00  0.00     0.026 C 
ATOM     10  C11  11 d         -14.692 206.673 120.144  0.00  0.00     0.251 C 
ATOM     11  C12  11 d         -15.871 205.638 122.260  0.00  0.00     0.026 C 
ATOM     12  O2   11 d         -14.962 207.898 120.403  0.00  0.00    -0.271 OA
ATOM     13  C13  11 d         -16.140 204.206 122.732  0.00  0.00    -0.024 C 
ATOM     14  C17  11 d         -14.779 206.292 123.173  0.00  0.00    -0.001 A 
ATOM     15  C14  11 d         -15.041 203.413 122.808  0.00  0.00    -0.024 C 
ATOM     16  C16  11 d         -13.523 205.380 123.291  0.00  0.00    -0.001 A 
ATOM     17  C18  11 d         -14.351 205.738 124.528  0.00  0.00     0.011 A 
ENDBRANCH   2   4
BRANCH   2  18
ATOM     18  C19  11 d         -12.413 207.751 117.772  0.00  0.00     0.237 C 
BRANCH  18  19
ATOM     19  C20  11 d         -10.991 207.537 117.277  0.00  0.00     0.179 C 
ATOM     20  O4   11 d         -10.158 206.998 118.052  0.00  0.00    -0.290 OA
BRANCH  19  21
ATOM     21  C21  11 d         -10.586 207.832 115.866  0.00  0.00     0.014 A 
ATOM     22  C22  11 d          -9.573 208.785 115.603  0.00  0.00     0.052 A 
ATOM     23  C23  11 d          -9.219 209.119 114.284  0.00  0.00     0.069 A 
ATOM     24  C25  11 d          -9.890 208.509 113.211  0.00  0.00     0.037 A 
ATOM     25  C26  11 d         -10.878 207.546 113.453  0.00  0.00     0.004 A 
ATOM     26  C27  11 d         -11.227 207.210 114.770  0.00  0.00     0.015 A 
BRANCH  23  27
ATOM     27  O3   11 d          -8.258 210.142 114.053  0.00  0.00    -0.356 OA
ATOM     28  C24  11 d          -7.075 209.945 114.874  0.00  0.00     0.210 C 
ENDBRANCH  23  27
ENDBRANCH  19  21
ENDBRANCH  18  19
ENDBRANCH   2  18
BRANCH   1  29
ATOM     29  C2   11 d         -14.272 206.115 115.729  0.00  0.00     0.034 A 
ATOM     30  C3   11 d         -14.346 205.232 114.629  0.00  0.00     0.019 A 
ATOM     31  C4   11 d         -14.748 205.696 113.366  0.00  0.00     0.025 A 
ATOM     32  C5   11 d         -15.091 207.044 113.188  0.00  0.00     0.034 A 
ATOM     33 Cl1   11 d         -15.556 207.641 111.575  0.00  0.00    -0.084 Cl
ATOM     34  C6   11 d         -15.062 207.921 114.281  0.00  0.00     0.025 A 
ATOM     35  C7   11 d         -14.667 207.460 115.547  0.00  0.00     0.019 A 
ENDBRANCH   1  29
TORSDOF 6
ENDMDL
MODEL 6
REMARK VINA RESULT:      -9.0      3.250      8.755
REMARK  6 active torsions:
REMARK  status: ('A' for Active; 'I' for Inactive)
REMARK    1  A    between atoms: C1_1  and  C2_2 
REMARK       I    between atoms: C1_1  and  N1_9 
REMARK    2  A    between atoms: N1_9  and  N2_10 
REMARK    3  A    between atoms: N1_9  and  C19_24 
REMARK    4  A    between atoms: C19_24  and  C20_25 
REMARK    5  A    between atoms: C20_25  and  C21_26 
REMARK    6  A    between atoms: C23_28  and  O3_29 
ROOT
ATOM      1  C1   11 d          -9.112 208.552 113.195  0.00  0.00     0.273 C 
ATOM      2  N1   11 d          -9.096 209.020 114.551  0.00  0.00    -0.237 N 
ATOM      3  O5   11 d          -8.164 208.925 112.413  0.00  0.00    -0.266 OA
ENDROOT
BRANCH   2   4
ATOM      4  N2   11 d          -7.862 208.972 115.260  0.00  0.00    -0.184 N 
ATOM      5  C8   11 d          -6.725 209.748 115.045  0.00  0.00     0.251 C 
ATOM      6  O1   11 d          -6.679 211.025 115.136  0.00  0.00    -0.271 OA
ATOM      7  C9   11 d          -5.554 208.806 115.013  0.00  0.00     0.102 C 
ATOM      8  C10  11 d          -6.089 207.628 115.947  0.00  0.00     0.102 C 
ATOM      9  C15  11 d          -4.188 209.336 115.557  0.00  0.00     0.026 C 
ATOM     10  C11  11 d          -7.464 208.140 116.297  0.00  0.00     0.251 C 
ATOM     11  C12  11 d          -5.074 207.393 117.113  0.00  0.00     0.026 C 
ATOM     12  O2   11 d          -8.044 208.068 117.436  0.00  0.00    -0.271 OA
ATOM     13  C13  11 d          -3.752 207.095 116.399  0.00  0.00    -0.024 C 
ATOM     14  C17  11 d          -4.943 208.732 117.915  0.00  0.00    -0.001 A 
ATOM     15  C14  11 d          -3.298 208.093 115.597  0.00  0.00    -0.024 C 
ATOM     16  C16  11 d          -4.398 209.878 117.015  0.00  0.00    -0.001 A 
ATOM     17  C18  11 d          -3.616 209.408 118.244  0.00  0.00     0.011 A 
ENDBRANCH   2   4
BRANCH   2  18
ATOM     18  C19  11 d         -10.307 209.565 115.266  0.00  0.00     0.237 C 
BRANCH  18  19
ATOM     19  C20  11 d         -11.102 208.611 116.143  0.00  0.00     0.179 C 
ATOM     20  O4   11 d         -10.678 208.366 117.303  0.00  0.00    -0.290 OA
BRANCH  19  21
ATOM     21  C21  11 d         -12.426 208.056 115.721  0.00  0.00     0.014 A 
ATOM     22  C22  11 d         -12.891 206.834 116.265  0.00  0.00     0.052 A 
ATOM     23  C23  11 d         -14.103 206.267 115.838  0.00  0.00     0.069 A 
ATOM     24  C25  11 d         -14.861 206.914 114.848  0.00  0.00     0.037 A 
ATOM     25  C26  11 d         -14.429 208.137 114.316  0.00  0.00     0.004 A 
ATOM     26  C27  11 d         -13.220 208.704 114.746  0.00  0.00     0.015 A 
BRANCH  23  27
ATOM     27  O3   11 d         -14.499 204.996 116.342  0.00  0.00    -0.356 OA
ATOM     28  C24  11 d         -14.108 204.839 117.732  0.00  0.00     0.210 C 
ENDBRANCH  23  27
ENDBRANCH  19  21
ENDBRANCH  18  19
ENDBRANCH   2  18
BRANCH   1  29
ATOM     29  C2   11 d         -10.213 207.698 112.655  0.00  0.00     0.034 A 
ATOM     30  C3   11 d         -10.827 208.039 111.430  0.00  0.00     0.019 A 
ATOM     31  C4   11 d         -11.942 207.324 110.965  0.00  0.00     0.025 A 
ATOM     32  C5   11 d         -12.453 206.253 111.713  0.00  0.00     0.034 A 
ATOM     33 Cl1   11 d         -13.896 205.376 111.146  0.00  0.00    -0.084 Cl
ATOM     34  C6   11 d         -11.827 205.878 112.910  0.00  0.00     0.025 A 
ATOM     35  C7   11 d         -10.707 206.587 113.375  0.00  0.00     0.019 A 
ENDBRANCH   1  29
TORSDOF 6
ENDMDL
MODEL 7
REMARK VINA RESULT:      -8.9      2.625      3.479
REMARK  6 active torsions:
REMARK  status: ('A' for Active; 'I' for Inactive)
REMARK    1  A    between atoms: C1_1  and  C2_2 
REMARK       I    between atoms: C1_1  and  N1_9 
REMARK    2  A    between atoms: N1_9  and  N2_10 
REMARK    3  A    between atoms: N1_9  and  C19_24 
REMARK    4  A    between atoms: C19_24  and  C20_25 
REMARK    5  A    between atoms: C20_25  and  C21_26 
REMARK    6  A    between atoms: C23_28  and  O3_29 
ROOT
ATOM      1  C1   11 d         -10.484 208.296 117.560  0.00  0.00     0.273 C 
ATOM      2  N1   11 d         -10.590 208.600 116.162  0.00  0.00    -0.237 N 
ATOM      3  O5   11 d         -11.554 208.320 118.269  0.00  0.00    -0.266 OA
ENDROOT
BRANCH   2   4
ATOM      4  N2   11 d         -11.650 207.997 115.426  0.00  0.00    -0.184 N 
ATOM      5  C8   11 d         -11.702 206.702 114.914  0.00  0.00     0.251 C 
ATOM      6  O1   11 d         -11.634 205.631 115.616  0.00  0.00    -0.271 OA
ATOM      7  C9   11 d         -12.161 206.816 113.488  0.00  0.00     0.102 C 
ATOM      8  C10  11 d         -13.026 208.154 113.556  0.00  0.00     0.102 C 
ATOM      9  C15  11 d         -13.030 205.649 112.916  0.00  0.00     0.026 C 
ATOM     10  C11  11 d         -12.858 208.532 115.007  0.00  0.00     0.251 C 
ATOM     11  C12  11 d         -14.471 207.860 113.035  0.00  0.00     0.026 C 
ATOM     12  O2   11 d         -13.758 209.001 115.787  0.00  0.00    -0.271 OA
ATOM     13  C13  11 d         -14.252 207.309 111.623  0.00  0.00    -0.024 C 
ATOM     14  C17  11 d         -15.092 206.743 113.941  0.00  0.00    -0.001 A 
ATOM     15  C14  11 d         -13.509 206.174 111.562  0.00  0.00    -0.024 C 
ATOM     16  C16  11 d         -14.265 205.427 113.859  0.00  0.00    -0.001 A 
ATOM     17  C18  11 d         -15.728 205.463 113.408  0.00  0.00     0.011 A 
ENDBRANCH   2   4
BRANCH   2  18
ATOM     18  C19  11 d          -9.651 209.525 115.430  0.00  0.00     0.237 C 
BRANCH  18  19
ATOM     19  C20  11 d          -8.564 208.897 114.571  0.00  0.00     0.179 C 
ATOM     20  O4   11 d          -8.885 208.410 113.455  0.00  0.00    -0.290 OA
BRANCH  19  21
ATOM     21  C21  11 d          -7.117 208.951 114.952  0.00  0.00     0.014 A 
ATOM     22  C22  11 d          -6.176 208.134 114.280  0.00  0.00     0.052 A 
ATOM     23  C23  11 d          -4.823 208.127 114.661  0.00  0.00     0.069 A 
ATOM     24  C25  11 d          -4.400 208.930 115.734  0.00  0.00     0.037 A 
ATOM     25  C26  11 d          -5.314 209.763 116.393  0.00  0.00     0.004 A 
ATOM     26  C27  11 d          -6.663 209.773 116.009  0.00  0.00     0.015 A 
BRANCH  23  27
ATOM     27  O3   11 d          -3.919 207.231 114.023  0.00  0.00    -0.356 OA
ATOM     28  C24  11 d          -3.597 207.682 112.680  0.00  0.00     0.210 C 
ENDBRANCH  23  27
ENDBRANCH  19  21
ENDBRANCH  18  19
ENDBRANCH   2  18
BRANCH   1  29
ATOM     29  C2   11 d          -9.174 208.010 118.220  0.00  0.00     0.034 A 
ATOM     30  C3   11 d          -8.729 208.832 119.279  0.00  0.00     0.019 A 
ATOM     31  C4   11 d          -7.450 208.657 119.831  0.00  0.00     0.025 A 
ATOM     32  C5   11 d          -6.603 207.653 119.339  0.00  0.00     0.034 A 
ATOM     33 Cl1   11 d          -4.962 207.461 120.009  0.00  0.00    -0.084 Cl
ATOM     34  C6   11 d          -7.048 206.803 118.317  0.00  0.00     0.025 A 
ATOM     35  C7   11 d          -8.330 206.971 117.768  0.00  0.00     0.019 A 
ENDBRANCH   1  29
TORSDOF 6
ENDMDL
MODEL 8
REMARK VINA RESULT:      -8.8      3.690      9.134
REMARK  6 active torsions:
REMARK  status: ('A' for Active; 'I' for Inactive)
REMARK    1  A    between atoms: C1_1  and  C2_2 
REMARK       I    between atoms: C1_1  and  N1_9 
REMARK    2  A    between atoms: N1_9  and  N2_10 
REMARK    3  A    between atoms: N1_9  and  C19_24 
REMARK    4  A    between atoms: C19_24  and  C20_25 
REMARK    5  A    between atoms: C20_25  and  C21_26 
REMARK    6  A    between atoms: C23_28  and  O3_29 
ROOT
ATOM      1  C1   11 d         -11.127 208.251 115.859  0.00  0.00     0.273 C 
ATOM      2  N1   11 d         -10.589 207.483 116.943  0.00  0.00    -0.237 N 
ATOM      3  O5   11 d         -11.118 209.532 115.958  0.00  0.00    -0.266 OA
ENDROOT
BRANCH   2   4
ATOM      4  N2   11 d          -9.347 207.897 117.503  0.00  0.00    -0.184 N 
ATOM      5  C8   11 d          -8.138 208.096 116.840  0.00  0.00     0.251 C 
ATOM      6  O1   11 d          -7.948 208.942 115.897  0.00  0.00    -0.271 OA
ATOM      7  C9   11 d          -7.081 207.387 117.639  0.00  0.00     0.102 C 
ATOM      8  C10  11 d          -7.714 207.454 119.102  0.00  0.00     0.102 C 
ATOM      9  C15  11 d          -5.648 208.012 117.652  0.00  0.00     0.026 C 
ATOM     10  C11  11 d          -9.012 208.169 118.821  0.00  0.00     0.251 C 
ATOM     11  C12  11 d          -6.696 208.134 120.074  0.00  0.00     0.026 C 
ATOM     12  O2   11 d          -9.561 209.076 119.540  0.00  0.00    -0.271 OA
ATOM     13  C13  11 d          -5.438 207.267 119.959  0.00  0.00    -0.024 C 
ATOM     14  C17  11 d          -6.392 209.570 119.527  0.00  0.00    -0.001 A 
ATOM     15  C14  11 d          -4.901 207.203 118.713  0.00  0.00    -0.024 C 
ATOM     16  C16  11 d          -5.751 209.509 118.110  0.00  0.00    -0.001 A 
ATOM     17  C18  11 d          -4.988 210.117 119.291  0.00  0.00     0.011 A 
ENDBRANCH   2   4
BRANCH   2  18
ATOM     18  C19  11 d         -11.265 206.268 117.528  0.00  0.00     0.237 C 
BRANCH  18  19
ATOM     19  C20  11 d         -12.607 206.465 118.215  0.00  0.00     0.179 C 
ATOM     20  O4   11 d         -12.877 207.596 118.697  0.00  0.00    -0.290 OA
BRANCH  19  21
ATOM     21  C21  11 d         -13.660 205.400 118.226  0.00  0.00     0.014 A 
ATOM     22  C22  11 d         -14.292 205.039 119.441  0.00  0.00     0.052 A 
ATOM     23  C23  11 d         -15.239 204.002 119.483  0.00  0.00     0.069 A 
ATOM     24  C25  11 d         -15.554 203.303 118.306  0.00  0.00     0.037 A 
ATOM     25  C26  11 d         -14.957 203.663 117.090  0.00  0.00     0.004 A 
ATOM     26  C27  11 d         -14.015 204.702 117.049  0.00  0.00     0.015 A 
BRANCH  23  27
ATOM     27  O3   11 d         -15.792 203.607 120.733  0.00  0.00    -0.356 OA
ATOM     28  C24  11 d         -17.060 202.923 120.552  0.00  0.00     0.210 C 
ENDBRANCH  23  27
ENDBRANCH  19  21
ENDBRANCH  18  19
ENDBRANCH   2  18
BRANCH   1  29
ATOM     29  C2   11 d         -11.742 207.616 114.653  0.00  0.00     0.034 A 
ATOM     30  C3   11 d         -10.937 207.318 113.532  0.00  0.00     0.019 A 
ATOM     31  C4   11 d         -11.513 206.835 112.346  0.00  0.00     0.025 A 
ATOM     32  C5   11 d         -12.899 206.634 112.268  0.00  0.00     0.034 A 
ATOM     33 Cl1   11 d         -13.635 206.066 110.748  0.00  0.00    -0.084 Cl
ATOM     34  C6   11 d         -13.704 206.886 113.388  0.00  0.00     0.025 A 
ATOM     35  C7   11 d         -13.130 207.362 114.578  0.00  0.00     0.019 A 
ENDBRANCH   1  29
TORSDOF 6
ENDMDL
MODEL 9
REMARK VINA RESULT:      -8.8      3.177      6.923
REMARK  6 active torsions:
REMARK  status: ('A' for Active; 'I' for Inactive)
REMARK    1  A    between atoms: C1_1  and  C2_2 
REMARK       I    between atoms: C1_1  and  N1_9 
REMARK    2  A    between atoms: N1_9  and  N2_10 
REMARK    3  A    between atoms: N1_9  and  C19_24 
REMARK    4  A    between atoms: C19_24  and  C20_25 
REMARK    5  A    between atoms: C20_25  and  C21_26 
REMARK    6  A    between atoms: C23_28  and  O3_29 
ROOT
ATOM      1  C1   11 d         -12.761 205.441 116.722  0.00  0.00     0.273 C 
ATOM      2  N1   11 d         -12.890 206.309 117.857  0.00  0.00    -0.237 N 
ATOM      3  O5   11 d         -12.255 204.275 116.903  0.00  0.00    -0.266 OA
ENDROOT
BRANCH   2   4
ATOM      4  N2   11 d         -13.411 205.758 119.062  0.00  0.00    -0.184 N 
ATOM      5  C8   11 d         -14.576 205.011 119.223  0.00  0.00     0.251 C 
ATOM      6  O1   11 d         -14.812 203.886 118.656  0.00  0.00    -0.271 OA
ATOM      7  C9   11 d         -15.314 205.602 120.391  0.00  0.00     0.102 C 
ATOM      8  C10  11 d         -14.105 206.204 121.239  0.00  0.00     0.102 C 
ATOM      9  C15  11 d         -16.153 204.627 121.281  0.00  0.00     0.026 C 
ATOM     10  C11  11 d         -12.931 205.847 120.360  0.00  0.00     0.251 C 
ATOM     11  C12  11 d         -14.146 205.614 122.686  0.00  0.00     0.026 C 
ATOM     12  O2   11 d         -11.785 205.426 120.744  0.00  0.00    -0.271 OA
ATOM     13  C13  11 d         -15.538 205.990 123.200  0.00  0.00    -0.024 C 
ATOM     14  C17  11 d         -14.033 204.056 122.575  0.00  0.00    -0.001 A 
ATOM     15  C14  11 d         -16.570 205.485 122.476  0.00  0.00    -0.024 C 
ATOM     16  C16  11 d         -15.225 203.461 121.770  0.00  0.00    -0.001 A 
ATOM     17  C18  11 d         -14.999 203.078 123.235  0.00  0.00     0.011 A 
ENDBRANCH   2   4
BRANCH   2  18
ATOM     18  C19  11 d         -12.500 207.765 117.849  0.00  0.00     0.237 C 
BRANCH  18  19
ATOM     19  C20  11 d         -11.030 208.108 118.031  0.00  0.00     0.179 C 
ATOM     20  O4   11 d         -10.531 208.025 119.184  0.00  0.00    -0.290 OA
BRANCH  19  21
ATOM     21  C21  11 d         -10.135 208.417 116.872  0.00  0.00     0.014 A 
ATOM     22  C22  11 d          -8.733 208.258 116.995  0.00  0.00     0.052 A 
ATOM     23  C23  11 d          -7.871 208.599 115.939  0.00  0.00     0.069 A 
ATOM     24  C25  11 d          -8.405 209.119 114.748  0.00  0.00     0.037 A 
ATOM     25  C26  11 d          -9.791 209.260 114.600  0.00  0.00     0.004 A 
ATOM     26  C27  11 d         -10.651 208.915 115.653  0.00  0.00     0.015 A 
BRANCH  23  27
ATOM     27  O3   11 d          -6.463 208.508 116.125  0.00  0.00    -0.356 OA
ATOM     28  C24  11 d          -5.879 209.819 116.352  0.00  0.00     0.210 C 
ENDBRANCH  23  27
ENDBRANCH  19  21
ENDBRANCH  18  19
ENDBRANCH   2  18
BRANCH   1  29
ATOM     29  C2   11 d         -13.142 205.867 115.340  0.00  0.00     0.034 A 
ATOM     30  C3   11 d         -14.506 205.986 114.995  0.00  0.00     0.019 A 
ATOM     31  C4   11 d         -14.888 206.263 113.673  0.00  0.00     0.025 A 
ATOM     32  C5   11 d         -13.912 206.436 112.680  0.00  0.00     0.034 A 
ATOM     33 Cl1   11 d         -14.398 206.743 110.994  0.00  0.00    -0.084 Cl
ATOM     34  C6   11 d         -12.553 206.362 113.018  0.00  0.00     0.025 A 
ATOM     35  C7   11 d         -12.168 206.091 114.341  0.00  0.00     0.019 A 
ENDBRANCH   1  29
TORSDOF 6
ENDMDL
MODEL 10
REMARK VINA RESULT:      -8.7      3.158      6.531
REMARK  6 active torsions:
REMARK  status: ('A' for Active; 'I' for Inactive)
REMARK    1  A    between atoms: C1_1  and  C2_2 
REMARK       I    between atoms: C1_1  and  N1_9 
REMARK    2  A    between atoms: N1_9  and  N2_10 
REMARK    3  A    between atoms: N1_9  and  C19_24 
REMARK    4  A    between atoms: C19_24  and  C20_25 
REMARK    5  A    between atoms: C20_25  and  C21_26 
REMARK    6  A    between atoms: C23_28  and  O3_29 
ROOT
ATOM      1  C1   11 d         -12.082 205.883 117.407  0.00  0.00     0.273 C 
ATOM      2  N1   11 d         -13.335 206.429 116.973  0.00  0.00    -0.237 N 
ATOM      3  O5   11 d         -11.806 204.670 117.088  0.00  0.00    -0.266 OA
ENDROOT
BRANCH   2   4
ATOM      4  N2   11 d         -13.731 206.201 115.624  0.00  0.00    -0.184 N 
ATOM      5  C8   11 d         -13.024 206.510 114.465  0.00  0.00     0.251 C 
ATOM      6  O1   11 d         -11.870 206.041 114.162  0.00  0.00    -0.271 OA
ATOM      7  C9   11 d         -13.983 207.205 113.541  0.00  0.00     0.102 C 
ATOM      8  C10  11 d         -15.369 206.570 114.012  0.00  0.00     0.102 C 
ATOM      9  C15  11 d         -13.792 206.985 112.005  0.00  0.00     0.026 C 
ATOM     10  C11  11 d         -14.906 205.660 115.122  0.00  0.00     0.251 C 
ATOM     11  C12  11 d         -16.083 205.923 112.781  0.00  0.00     0.026 C 
ATOM     12  O2   11 d         -15.331 204.480 115.376  0.00  0.00    -0.271 OA
ATOM     13  C13  11 d         -16.213 207.074 111.779  0.00  0.00    -0.024 C 
ATOM     14  C17  11 d         -15.132 204.825 112.194  0.00  0.00    -0.001 A 
ATOM     15  C14  11 d         -15.036 207.622 111.382  0.00  0.00    -0.024 C 
ATOM     16  C16  11 d         -13.788 205.444 111.710  0.00  0.00    -0.001 A 
ATOM     17  C18  11 d         -14.726 204.739 110.726  0.00  0.00     0.011 A 
ENDBRANCH   2   4
BRANCH   2  18
ATOM     18  C19  11 d         -14.258 207.225 117.862  0.00  0.00     0.237 C 
BRANCH  18  19
ATOM     19  C20  11 d         -14.448 206.749 119.293  0.00  0.00     0.179 C 
ATOM     20  O4   11 d         -14.103 207.513 120.233  0.00  0.00    -0.290 OA
BRANCH  19  21
ATOM     21  C21  11 d         -15.143 205.463 119.620  0.00  0.00     0.014 A 
ATOM     22  C22  11 d         -15.926 205.358 120.794  0.00  0.00     0.052 A 
ATOM     23  C23  11 d         -16.538 204.144 121.149  0.00  0.00     0.069 A 
ATOM     24  C25  11 d         -16.359 203.013 120.334  0.00  0.00     0.037 A 
ATOM     25  C26  11 d         -15.607 203.106 119.155  0.00  0.00     0.004 A 
ATOM     26  C27  11 d         -15.001 204.320 118.800  0.00  0.00     0.015 A 
BRANCH  23  27
ATOM     27  O3   11 d         -17.247 204.048 122.379  0.00  0.00    -0.356 OA
ATOM     28  C24  11 d         -16.358 204.242 123.512  0.00  0.00     0.210 C 
ENDBRANCH  23  27
ENDBRANCH  19  21
ENDBRANCH  18  19
ENDBRANCH   2  18
BRANCH   1  29
ATOM     29  C2   11 d         -11.123 206.653 118.256  0.00  0.00     0.034 A 
ATOM     30  C3   11 d         -10.828 207.997 117.937  0.00  0.00     0.019 A 
ATOM     31  C4   11 d          -9.841 208.700 118.645  0.00  0.00     0.025 A 
ATOM     32  C5   11 d          -9.141 208.074 119.687  0.00  0.00     0.034 A 
ATOM     33 Cl1   11 d          -7.855 208.951 120.554  0.00  0.00    -0.084 Cl
ATOM     34  C6   11 d          -9.453 206.754 120.041  0.00  0.00     0.025 A 
ATOM     35  C7   11 d         -10.445 206.050 119.340  0.00  0.00     0.019 A 
ENDBRANCH   1  29
TORSDOF 6
ENDMDL
