MODEL 1
REMARK VINA RESULT:      -9.8      0.000      0.000
REMARK  5 active torsions:
REMARK  status: ('A' for Active; 'I' for Inactive)
REMARK    1  A    between atoms: C3_3  and  N1_4 
REMARK    2  A    between atoms: N1_4  and  C4_5 
REMARK    3  A    between atoms: N2_8  and  C7_9 
REMARK    4  A    between atoms: C7_9  and  C8_10 
REMARK    5  A    between atoms: C22_25  and  N4_26 
ROOT
ATOM      1  N1   11 d          -9.329 208.465 115.082  0.00  0.00    -0.061 N 
ATOM      2  H2   11 d          -8.984 207.504 114.754  0.00  0.00     0.278 HD
ATOM      3  H3   11 d          -9.050 208.528 116.118  0.00  0.00     0.278 HD
ENDROOT
BRANCH   1   4
ATOM      4  C3   11 d          -8.532 209.525 114.362  0.00  0.00     0.238 C 
ATOM      5  C2   11 d          -7.073 209.300 114.688  0.00  0.00     0.073 A 
ATOM      6  C1   11 d          -6.105 208.933 113.756  0.00  0.00    -0.019 A 
ATOM      7  N3   11 d          -6.539 209.337 115.931  0.00  0.00    -0.250 NA
ATOM      8  C18  11 d          -6.401 208.647 112.309  0.00  0.00     0.042 C 
ATOM      9  C20  11 d          -4.962 208.676 114.486  0.00  0.00     0.003 A 
ATOM     10  C17  11 d          -7.916 208.484 112.075  0.00  0.00     0.007 C 
ATOM     11  C16  11 d          -8.719 209.573 112.817  0.00  0.00     0.040 C 
ATOM     12  C19  11 d          -5.248 208.961 115.806  0.00  0.00     0.068 A 
ATOM     13  C21  11 d          -3.703 208.211 114.088  0.00  0.00     0.050 A 
ATOM     14  C24  11 d          -4.278 208.821 116.802  0.00  0.00     0.035 A 
ATOM     15  C23  11 d          -2.998 208.361 116.428  0.00  0.00     0.038 A 
ATOM     16  C22  11 d          -2.692 208.038 115.074  0.00  0.00     0.103 A 
BRANCH  16  17
ATOM     17  N4   11 d          -1.424 207.565 114.726  0.00  0.00    -0.116 N 
ATOM     18  O1   11 d          -1.109 206.501 115.009  0.00  0.00    -0.532 OA
ATOM     19  O2   11 d          -0.528 208.363 114.335  0.00  0.00    -0.532 OA
ENDBRANCH  16  17
ENDBRANCH   1   4
BRANCH   1  20
ATOM     20  C4   11 d         -10.843 208.561 114.967  0.00  0.00     0.190 C 
ATOM     21  C5   11 d         -11.621 207.882 116.128  0.00  0.00     0.060 C 
ATOM     22  C6   11 d         -11.745 206.346 115.994  0.00  0.00     0.237 C 
ATOM     23  N2   11 d         -12.301 205.888 114.668  0.00  0.00    -0.067 N 
ATOM     24  C14  11 d         -11.510 206.504 113.540  0.00  0.00     0.237 C 
ATOM     25  H9   11 d         -12.138 204.823 114.618  0.00  0.00     0.280 HD
ATOM     26  C15  11 d         -11.406 208.041 113.617  0.00  0.00     0.060 C 
BRANCH  23  27
ATOM     27  C7   11 d         -13.796 206.078 114.571  0.00  0.00     0.273 C 
BRANCH  27  28
ATOM     28  C8   11 d         -14.288 206.177 113.144  0.00  0.00    -0.033 A 
ATOM     29  C9   11 d         -14.778 207.400 112.638  0.00  0.00     0.009 A 
ATOM     30  C10  11 d         -15.244 207.485 111.319  0.00  0.00     0.001 A 
ATOM     31  C11  11 d         -15.238 206.348 110.497  0.00  0.00     0.000 A 
ATOM     32  C12  11 d         -14.779 205.122 110.999  0.00  0.00     0.001 A 
ATOM     33  C13  11 d         -14.319 205.032 112.322  0.00  0.00     0.009 A 
ENDBRANCH  27  28
ENDBRANCH  23  27
ENDBRANCH   1  20
TORSDOF 5
ENDMDL
MODEL 2
REMARK VINA RESULT:      -9.5      3.769      6.320
REMARK  5 active torsions:
REMARK  status: ('A' for Active; 'I' for Inactive)
REMARK    1  A    between atoms: C3_3  and  N1_4 
REMARK    2  A    between atoms: N1_4  and  C4_5 
REMARK    3  A    between atoms: N2_8  and  C7_9 
REMARK    4  A    between atoms: C7_9  and  C8_10 
REMARK    5  A    between atoms: C22_25  and  N4_26 
ROOT
ATOM      1  N1   11 d         -13.359 206.186 114.533  0.00  0.00    -0.061 N 
ATOM      2  H2   11 d         -13.516 205.306 113.940  0.00  0.00     0.278 HD
ATOM      3  H3   11 d         -12.396 206.052 114.990  0.00  0.00     0.278 HD
ENDROOT
BRANCH   1   4
ATOM      4  C3   11 d         -13.226 207.366 113.600  0.00  0.00     0.238 C 
ATOM      5  C2   11 d         -11.803 207.868 113.699  0.00  0.00     0.073 A 
ATOM      6  C1   11 d         -10.881 207.832 112.656  0.00  0.00    -0.019 A 
ATOM      7  N3   11 d         -11.218 208.330 114.829  0.00  0.00    -0.250 NA
ATOM      8  C18  11 d         -11.162 207.225 111.309  0.00  0.00     0.042 C 
ATOM      9  C20  11 d          -9.678 208.227 113.207  0.00  0.00     0.003 A 
ATOM     10  C17  11 d         -12.444 206.370 111.344  0.00  0.00     0.007 C 
ATOM     11  C16  11 d         -13.576 207.086 112.109  0.00  0.00     0.040 C 
ATOM     12  C19  11 d          -9.921 208.555 114.526  0.00  0.00     0.068 A 
ATOM     13  C21  11 d          -8.397 208.318 112.649  0.00  0.00     0.050 A 
ATOM     14  C24  11 d          -8.898 209.018 115.356  0.00  0.00     0.035 A 
ATOM     15  C23  11 d          -7.598 209.124 114.818  0.00  0.00     0.038 A 
ATOM     16  C22  11 d          -7.323 208.768 113.466  0.00  0.00     0.103 A 
BRANCH  16  17
ATOM     17  N4   11 d          -6.026 208.862 112.956  0.00  0.00    -0.116 N 
ATOM     18  O1   11 d          -5.319 209.682 113.329  0.00  0.00    -0.532 OA
ATOM     19  O2   11 d          -5.700 208.231 111.913  0.00  0.00    -0.532 OA
ENDBRANCH  16  17
ENDBRANCH   1   4
BRANCH   1  20
ATOM     20  C4   11 d         -14.415 206.299 115.621  0.00  0.00     0.190 C 
ATOM     21  C5   11 d         -14.282 207.560 116.519  0.00  0.00     0.060 C 
ATOM     22  C6   11 d         -13.208 207.437 117.626  0.00  0.00     0.237 C 
ATOM     23  N2   11 d         -13.350 206.207 118.488  0.00  0.00    -0.067 N 
ATOM     24  C14  11 d         -13.425 204.977 117.617  0.00  0.00     0.237 C 
ATOM     25  H9   11 d         -12.442 206.128 119.063  0.00  0.00     0.280 HD
ATOM     26  C15  11 d         -14.519 205.046 116.532  0.00  0.00     0.060 C 
BRANCH  23  27
ATOM     27  C7   11 d         -14.465 206.335 119.499  0.00  0.00     0.273 C 
BRANCH  27  28
ATOM     28  C8   11 d         -14.385 205.304 120.602  0.00  0.00    -0.033 A 
ATOM     29  C9   11 d         -15.464 204.427 120.843  0.00  0.00     0.009 A 
ATOM     30  C10  11 d         -15.390 203.480 121.874  0.00  0.00     0.001 A 
ATOM     31  C11  11 d         -14.247 203.409 122.682  0.00  0.00     0.000 A 
ATOM     32  C12  11 d         -13.181 204.294 122.469  0.00  0.00     0.001 A 
ATOM     33  C13  11 d         -13.254 205.249 121.442  0.00  0.00     0.009 A 
ENDBRANCH  27  28
ENDBRANCH  23  27
ENDBRANCH   1  20
TORSDOF 5
ENDMDL
MODEL 3
REMARK VINA RESULT:      -9.4      7.048     10.539
REMARK  5 active torsions:
REMARK  status: ('A' for Active; 'I' for Inactive)
REMARK    1  A    between atoms: C3_3  and  N1_4 
REMARK    2  A    between atoms: N1_4  and  C4_5 
REMARK    3  A    between atoms: N2_8  and  C7_9 
REMARK    4  A    between atoms: C7_9  and  C8_10 
REMARK    5  A    between atoms: C22_25  and  N4_26 
ROOT
ATOM      1  N1   11 d         -14.453 206.258 117.950  0.00  0.00    -0.061 N 
ATOM      2  H2   11 d         -14.127 207.215 117.594  0.00  0.00     0.278 HD
ATOM      3  H3   11 d         -15.505 206.217 117.733  0.00  0.00     0.278 HD
ENDROOT
BRANCH   1   4
ATOM      4  C3   11 d         -13.803 205.192 117.101  0.00  0.00     0.238 C 
ATOM      5  C2   11 d         -14.187 205.457 115.663  0.00  0.00     0.073 A 
ATOM      6  C1   11 d         -13.288 205.815 114.661  0.00  0.00    -0.019 A 
ATOM      7  N3   11 d         -15.453 205.469 115.185  0.00  0.00    -0.250 NA
ATOM      8  C18  11 d         -11.821 206.051 114.896  0.00  0.00     0.042 C 
ATOM      9  C20  11 d         -14.060 206.117 113.557  0.00  0.00     0.003 A 
ATOM     10  C17  11 d         -11.515 206.176 116.401  0.00  0.00     0.007 C 
ATOM     11  C16  11 d         -12.253 205.094 117.216  0.00  0.00     0.040 C 
ATOM     12  C19  11 d         -15.375 205.867 113.897  0.00  0.00     0.068 A 
ATOM     13  C21  11 d         -13.704 206.595 112.290  0.00  0.00     0.050 A 
ATOM     14  C24  11 d         -16.407 206.056 112.976  0.00  0.00     0.035 A 
ATOM     15  C23  11 d         -16.077 206.531 111.690  0.00  0.00     0.038 A 
ATOM     16  C22  11 d         -14.728 206.819 111.329  0.00  0.00     0.103 A 
BRANCH  16  17
ATOM     17  N4   11 d         -14.423 207.306 110.055  0.00  0.00    -0.116 N 
ATOM     18  O1   11 d         -15.255 207.470 109.286  0.00  0.00    -0.532 OA
ATOM     19  O2   11 d         -13.229 207.326 109.647  0.00  0.00    -0.532 OA
ENDBRANCH  16  17
ENDBRANCH   1   4
BRANCH   1  20
ATOM     20  C4   11 d         -14.250 206.144 119.453  0.00  0.00     0.190 C 
ATOM     21  C5   11 d         -14.614 204.756 120.048  0.00  0.00     0.060 C 
ATOM     22  C6   11 d         -16.130 204.543 120.274  0.00  0.00     0.237 C 
ATOM     23  N2   11 d         -16.791 205.635 121.079  0.00  0.00    -0.067 N 
ATOM     24  C14  11 d         -16.482 206.981 120.468  0.00  0.00     0.237 C 
ATOM     25  H9   11 d         -17.854 205.487 120.984  0.00  0.00     0.280 HD
ATOM     26  C15  11 d         -14.975 207.246 120.272  0.00  0.00     0.060 C 
BRANCH  23  27
ATOM     27  C7   11 d         -16.493 205.527 122.555  0.00  0.00     0.273 C 
BRANCH  27  28
ATOM     28  C8   11 d         -17.738 205.394 123.402  0.00  0.00    -0.033 A 
ATOM     29  C9   11 d         -18.709 204.414 123.102  0.00  0.00     0.009 A 
ATOM     30  C10  11 d         -19.867 204.302 123.883  0.00  0.00     0.001 A 
ATOM     31  C11  11 d         -20.075 205.174 124.961  0.00  0.00     0.000 A 
ATOM     32  C12  11 d         -19.131 206.168 125.252  0.00  0.00     0.001 A 
ATOM     33  C13  11 d         -17.973 206.289 124.467  0.00  0.00     0.009 A 
ENDBRANCH  27  28
ENDBRANCH  23  27
ENDBRANCH   1  20
TORSDOF 5
ENDMDL
MODEL 4
REMARK VINA RESULT:      -9.2      4.355      9.368
REMARK  5 active torsions:
REMARK  status: ('A' for Active; 'I' for Inactive)
REMARK    1  A    between atoms: C3_3  and  N1_4 
REMARK    2  A    between atoms: N1_4  and  C4_5 
REMARK    3  A    between atoms: N2_8  and  C7_9 
REMARK    4  A    between atoms: C7_9  and  C8_10 
REMARK    5  A    between atoms: C22_25  and  N4_26 
ROOT
ATOM      1  N1   11 d          -8.515 208.227 115.624  0.00  0.00    -0.061 N 
ATOM      2  H2   11 d          -8.347 207.635 116.502  0.00  0.00     0.278 HD
ATOM      3  H3   11 d          -8.596 207.522 114.818  0.00  0.00     0.278 HD
ENDROOT
BRANCH   1   4
ATOM      4  C3   11 d          -9.867 208.886 115.750  0.00  0.00     0.238 C 
ATOM      5  C2   11 d         -10.769 208.282 114.698  0.00  0.00     0.073 A 
ATOM      6  C1   11 d         -11.897 207.513 114.975  0.00  0.00    -0.019 A 
ATOM      7  N3   11 d         -10.550 208.333 113.363  0.00  0.00    -0.250 NA
ATOM      8  C18  11 d         -12.328 207.126 116.363  0.00  0.00     0.042 C 
ATOM      9  C20  11 d         -12.329 207.031 113.756  0.00  0.00     0.003 A 
ATOM     10  C17  11 d         -11.206 207.394 117.386  0.00  0.00     0.007 C 
ATOM     11  C16  11 d         -10.545 208.767 117.147  0.00  0.00     0.040 C 
ATOM     12  C19  11 d         -11.507 207.573 112.787  0.00  0.00     0.068 A 
ATOM     13  C21  11 d         -13.374 206.158 113.431  0.00  0.00     0.050 A 
ATOM     14  C24  11 d         -11.702 207.291 111.433  0.00  0.00     0.035 A 
ATOM     15  C23  11 d         -12.752 206.420 111.077  0.00  0.00     0.038 A 
ATOM     16  C22  11 d         -13.596 205.832 112.064  0.00  0.00     0.103 A 
BRANCH  16  17
ATOM     17  N4   11 d         -14.619 204.956 111.693  0.00  0.00    -0.116 N 
ATOM     18  O1   11 d         -14.367 203.911 111.296  0.00  0.00    -0.532 OA
ATOM     19  O2   11 d         -15.799 205.377 111.542  0.00  0.00    -0.532 OA
ENDBRANCH  16  17
ENDBRANCH   1   4
BRANCH   1  20
ATOM     20  C4   11 d          -7.334 209.149 115.363  0.00  0.00     0.190 C 
ATOM     21  C5   11 d          -7.194 209.613 113.887  0.00  0.00     0.060 C 
ATOM     22  C6   11 d          -6.537 208.568 112.954  0.00  0.00     0.237 C 
ATOM     23  N2   11 d          -5.213 208.044 113.454  0.00  0.00    -0.067 N 
ATOM     24  C14  11 d          -5.362 207.542 114.870  0.00  0.00     0.237 C 
ATOM     25  H9   11 d          -4.971 207.189 112.844  0.00  0.00     0.280 HD
ATOM     26  C15  11 d          -5.970 208.577 115.838  0.00  0.00     0.060 C 
BRANCH  23  27
ATOM     27  C7   11 d          -4.087 209.028 113.246  0.00  0.00     0.273 C 
BRANCH  27  28
ATOM     28  C8   11 d          -3.360 208.827 111.935  0.00  0.00    -0.033 A 
ATOM     29  C9   11 d          -2.108 209.438 111.709  0.00  0.00     0.009 A 
ATOM     30  C10  11 d          -1.443 209.259 110.488  0.00  0.00     0.001 A 
ATOM     31  C11  11 d          -2.027 208.481 109.478  0.00  0.00     0.000 A 
ATOM     32  C12  11 d          -3.283 207.893 109.682  0.00  0.00     0.001 A 
ATOM     33  C13  11 d          -3.955 208.077 110.900  0.00  0.00     0.009 A 
ENDBRANCH  27  28
ENDBRANCH  23  27
ENDBRANCH   1  20
TORSDOF 5
ENDMDL
MODEL 5
REMARK VINA RESULT:      -9.1      7.914     11.620
REMARK  5 active torsions:
REMARK  status: ('A' for Active; 'I' for Inactive)
REMARK    1  A    between atoms: C3_3  and  N1_4 
REMARK    2  A    between atoms: N1_4  and  C4_5 
REMARK    3  A    between atoms: N2_8  and  C7_9 
REMARK    4  A    between atoms: C7_9  and  C8_10 
REMARK    5  A    between atoms: C22_25  and  N4_26 
ROOT
ATOM      1  N1   11 d         -14.768 204.633 118.265  0.00  0.00    -0.061 N 
ATOM      2  H2   11 d         -15.570 205.336 118.152  0.00  0.00     0.278 HD
ATOM      3  H3   11 d         -14.048 205.123 118.895  0.00  0.00     0.278 HD
ENDROOT
BRANCH   1   4
ATOM      4  C3   11 d         -15.283 203.450 119.049  0.00  0.00     0.238 C 
ATOM      5  C2   11 d         -15.840 203.974 120.353  0.00  0.00     0.073 A 
ATOM      6  C1   11 d         -17.183 203.910 120.717  0.00  0.00    -0.019 A 
ATOM      7  N3   11 d         -15.131 204.648 121.287  0.00  0.00    -0.250 NA
ATOM      8  C18  11 d         -18.269 203.369 119.828  0.00  0.00     0.042 C 
ATOM      9  C20  11 d         -17.287 204.636 121.887  0.00  0.00     0.003 A 
ATOM     10  C17  11 d         -17.771 203.216 118.377  0.00  0.00     0.007 C 
ATOM     11  C16  11 d         -16.363 202.587 118.331  0.00  0.00     0.040 C 
ATOM     12  C19  11 d         -16.014 205.047 122.228  0.00  0.00     0.068 A 
ATOM     13  C21  11 d         -18.402 204.965 122.669  0.00  0.00     0.050 A 
ATOM     14  C24  11 d         -15.781 205.791 123.387  0.00  0.00     0.035 A 
ATOM     15  C23  11 d         -16.885 206.131 124.196  0.00  0.00     0.038 A 
ATOM     16  C22  11 d         -18.209 205.737 123.848  0.00  0.00     0.103 A 
BRANCH  16  17
ATOM     17  N4   11 d         -19.293 206.099 124.652  0.00  0.00    -0.116 N 
ATOM     18  O1   11 d         -20.142 205.354 124.845  0.00  0.00    -0.532 OA
ATOM     19  O2   11 d         -19.486 207.308 124.960  0.00  0.00    -0.532 OA
ENDBRANCH  16  17
ENDBRANCH   1   4
BRANCH   1  20
ATOM     20  C4   11 d         -14.126 204.327 116.921  0.00  0.00     0.190 C 
ATOM     21  C5   11 d         -12.667 204.839 116.772  0.00  0.00     0.060 C 
ATOM     22  C6   11 d         -12.557 206.346 116.440  0.00  0.00     0.237 C 
ATOM     23  N2   11 d         -13.374 206.774 115.246  0.00  0.00    -0.067 N 
ATOM     24  C14  11 d         -14.805 206.324 115.416  0.00  0.00     0.237 C 
ATOM     25  H9   11 d         -13.384 207.852 115.250  0.00  0.00     0.280 HD
ATOM     26  C15  11 d         -14.954 204.816 115.701  0.00  0.00     0.060 C 
BRANCH  23  27
ATOM     27  C7   11 d         -12.737 206.376 113.936  0.00  0.00     0.273 C 
BRANCH  27  28
ATOM     28  C8   11 d         -13.708 206.389 112.777  0.00  0.00    -0.033 A 
ATOM     29  C9   11 d         -14.290 207.599 112.343  0.00  0.00     0.009 A 
ATOM     30  C10  11 d         -15.199 207.605 111.276  0.00  0.00     0.001 A 
ATOM     31  C11  11 d         -15.545 206.404 110.641  0.00  0.00     0.000 A 
ATOM     32  C12  11 d         -14.993 205.193 111.081  0.00  0.00     0.001 A 
ATOM     33  C13  11 d         -14.089 205.182 112.155  0.00  0.00     0.009 A 
ENDBRANCH  27  28
ENDBRANCH  23  27
ENDBRANCH   1  20
TORSDOF 5
ENDMDL
MODEL 6
REMARK VINA RESULT:      -9.0      7.814     11.645
REMARK  5 active torsions:
REMARK  status: ('A' for Active; 'I' for Inactive)
REMARK    1  A    between atoms: C3_3  and  N1_4 
REMARK    2  A    between atoms: N1_4  and  C4_5 
REMARK    3  A    between atoms: N2_8  and  C7_9 
REMARK    4  A    between atoms: C7_9  and  C8_10 
REMARK    5  A    between atoms: C22_25  and  N4_26 
ROOT
ATOM      1  N1   11 d         -14.519 205.650 118.084  0.00  0.00    -0.061 N 
ATOM      2  H2   11 d         -15.182 205.667 117.241  0.00  0.00     0.278 HD
ATOM      3  H3   11 d         -14.981 206.280 118.821  0.00  0.00     0.278 HD
ENDROOT
BRANCH   1   4
ATOM      4  C3   11 d         -14.522 204.254 118.658  0.00  0.00     0.238 C 
ATOM      5  C2   11 d         -15.417 204.263 119.876  0.00  0.00     0.073 A 
ATOM      6  C1   11 d         -16.611 203.553 119.981  0.00  0.00    -0.019 A 
ATOM      7  N3   11 d         -15.223 205.024 120.978  0.00  0.00    -0.250 NA
ATOM      8  C18  11 d         -17.202 202.735 118.865  0.00  0.00     0.042 C 
ATOM      9  C20  11 d         -17.185 203.962 121.168  0.00  0.00     0.003 A 
ATOM     10  C17  11 d         -16.512 203.050 117.523  0.00  0.00     0.007 C 
ATOM     11  C16  11 d         -14.979 203.127 117.684  0.00  0.00     0.040 C 
ATOM     12  C19  11 d         -16.301 204.836 121.770  0.00  0.00     0.068 A 
ATOM     13  C21  11 d         -18.413 203.635 121.756  0.00  0.00     0.050 A 
ATOM     14  C24  11 d         -16.586 205.412 123.010  0.00  0.00     0.035 A 
ATOM     15  C23  11 d         -17.814 205.095 123.628  0.00  0.00     0.038 A 
ATOM     16  C22  11 d         -18.750 204.215 123.011  0.00  0.00     0.103 A 
BRANCH  16  17
ATOM     17  N4   11 d         -19.969 203.927 123.629  0.00  0.00    -0.116 N 
ATOM     18  O1   11 d         -20.622 203.069 123.243  0.00  0.00    -0.532 OA
ATOM     19  O2   11 d         -20.487 204.748 124.436  0.00  0.00    -0.532 OA
ENDBRANCH  16  17
ENDBRANCH   1   4
BRANCH   1  20
ATOM     20  C4   11 d         -13.162 206.227 117.714  0.00  0.00     0.190 C 
ATOM     21  C5   11 d         -13.207 207.686 117.182  0.00  0.00     0.060 C 
ATOM     22  C6   11 d         -13.621 207.805 115.696  0.00  0.00     0.237 C 
ATOM     23  N2   11 d         -12.810 206.943 114.760  0.00  0.00    -0.067 N 
ATOM     24  C14  11 d         -12.812 205.514 115.247  0.00  0.00     0.237 C 
ATOM     25  H9   11 d         -13.323 206.950 113.813  0.00  0.00     0.280 HD
ATOM     26  C15  11 d         -12.358 205.354 116.712  0.00  0.00     0.060 C 
BRANCH  23  27
ATOM     27  C7   11 d         -11.439 207.516 114.487  0.00  0.00     0.273 C 
BRANCH  27  28
ATOM     28  C8   11 d         -11.132 207.639 113.012  0.00  0.00    -0.033 A 
ATOM     29  C9   11 d         -10.026 208.397 112.570  0.00  0.00     0.009 A 
ATOM     30  C10  11 d          -9.752 208.517 111.201  0.00  0.00     0.001 A 
ATOM     31  C11  11 d         -10.584 207.894 110.260  0.00  0.00     0.000 A 
ATOM     32  C12  11 d         -11.700 207.161 110.687  0.00  0.00     0.001 A 
ATOM     33  C13  11 d         -11.983 207.045 112.057  0.00  0.00     0.009 A 
ENDBRANCH  27  28
ENDBRANCH  23  27
ENDBRANCH   1  20
TORSDOF 5
ENDMDL
MODEL 7
REMARK VINA RESULT:      -8.8      2.292      2.798
REMARK  5 active torsions:
REMARK  status: ('A' for Active; 'I' for Inactive)
REMARK    1  A    between atoms: C3_3  and  N1_4 
REMARK    2  A    between atoms: N1_4  and  C4_5 
REMARK    3  A    between atoms: N2_8  and  C7_9 
REMARK    4  A    between atoms: C7_9  and  C8_10 
REMARK    5  A    between atoms: C22_25  and  N4_26 
ROOT
ATOM      1  N1   11 d          -8.781 208.289 115.467  0.00  0.00    -0.061 N 
ATOM      2  H2   11 d          -8.553 207.296 115.133  0.00  0.00     0.278 HD
ATOM      3  H3   11 d          -9.230 208.167 116.436  0.00  0.00     0.278 HD
ENDROOT
BRANCH   1   4
ATOM      4  C3   11 d          -7.481 209.022 115.692  0.00  0.00     0.238 C 
ATOM      5  C2   11 d          -6.517 208.055 116.341  0.00  0.00     0.073 A 
ATOM      6  C1   11 d          -5.344 207.594 115.747  0.00  0.00    -0.019 A 
ATOM      7  N3   11 d          -6.711 207.447 117.534  0.00  0.00    -0.250 NA
ATOM      8  C18  11 d          -4.916 207.949 114.349  0.00  0.00     0.042 C 
ATOM      9  C20  11 d          -4.855 206.620 116.594  0.00  0.00     0.003 A 
ATOM     10  C17  11 d          -6.076 208.592 113.562  0.00  0.00     0.007 C 
ATOM     11  C16  11 d          -6.825 209.634 114.418  0.00  0.00     0.040 C 
ATOM     12  C19  11 d          -5.692 206.574 117.692  0.00  0.00     0.068 A 
ATOM     13  C21  11 d          -3.745 205.775 116.479  0.00  0.00     0.050 A 
ATOM     14  C24  11 d          -5.449 205.695 118.749  0.00  0.00     0.035 A 
ATOM     15  C23  11 d          -4.334 204.836 118.662  0.00  0.00     0.038 A 
ATOM     16  C22  11 d          -3.473 204.852 117.526  0.00  0.00     0.103 A 
BRANCH  16  17
ATOM     17  N4   11 d          -2.383 203.980 117.449  0.00  0.00    -0.116 N 
ATOM     18  O1   11 d          -2.033 203.412 118.380  0.00  0.00    -0.532 OA
ATOM     19  O2   11 d          -1.619 203.999 116.445  0.00  0.00    -0.532 OA
ENDBRANCH  16  17
ENDBRANCH   1   4
BRANCH   1  20
ATOM     20  C4   11 d          -9.781 208.955 114.535  0.00  0.00     0.190 C 
ATOM     21  C5   11 d         -11.181 209.200 115.162  0.00  0.00     0.060 C 
ATOM     22  C6   11 d         -12.091 207.949 115.186  0.00  0.00     0.237 C 
ATOM     23  N2   11 d         -12.242 207.272 113.845  0.00  0.00    -0.067 N 
ATOM     24  C14  11 d         -10.880 206.984 113.261  0.00  0.00     0.237 C 
ATOM     25  H9   11 d         -12.708 206.319 114.033  0.00  0.00     0.280 HD
ATOM     26  C15  11 d          -9.962 208.221 113.178  0.00  0.00     0.060 C 
BRANCH  23  27
ATOM     27  C7   11 d         -13.181 208.014 112.925  0.00  0.00     0.273 C 
BRANCH  27  28
ATOM     28  C8   11 d         -14.467 207.262 112.660  0.00  0.00    -0.033 A 
ATOM     29  C9   11 d         -15.130 206.585 113.706  0.00  0.00     0.009 A 
ATOM     30  C10  11 d         -16.315 205.880 113.454  0.00  0.00     0.001 A 
ATOM     31  C11  11 d         -16.841 205.833 112.155  0.00  0.00     0.000 A 
ATOM     32  C12  11 d         -16.176 206.479 111.104  0.00  0.00     0.001 A 
ATOM     33  C13  11 d         -14.984 207.179 111.351  0.00  0.00     0.009 A 
ENDBRANCH  27  28
ENDBRANCH  23  27
ENDBRANCH   1  20
TORSDOF 5
ENDMDL
MODEL 8
REMARK VINA RESULT:      -8.6      8.205     10.984
REMARK  5 active torsions:
REMARK  status: ('A' for Active; 'I' for Inactive)
REMARK    1  A    between atoms: C3_3  and  N1_4 
REMARK    2  A    between atoms: N1_4  and  C4_5 
REMARK    3  A    between atoms: N2_8  and  C7_9 
REMARK    4  A    between atoms: C7_9  and  C8_10 
REMARK    5  A    between atoms: C22_25  and  N4_26 
ROOT
ATOM      1  N1   11 d         -14.572 205.835 119.155  0.00  0.00    -0.061 N 
ATOM      2  H2   11 d         -15.561 206.038 118.795  0.00  0.00     0.278 HD
ATOM      3  H3   11 d         -14.325 206.665 119.791  0.00  0.00     0.278 HD
ENDROOT
BRANCH   1   4
ATOM      4  C3   11 d         -14.634 204.619 120.047  0.00  0.00     0.238 C 
ATOM      5  C2   11 d         -14.645 205.104 121.479  0.00  0.00     0.073 A 
ATOM      6  C1   11 d         -15.713 204.938 122.359  0.00  0.00    -0.019 A 
ATOM      7  N3   11 d         -13.666 205.835 122.061  0.00  0.00    -0.250 NA
ATOM      8  C18  11 d         -17.025 204.310 121.975  0.00  0.00     0.042 C 
ATOM      9  C20  11 d         -15.381 205.658 123.489  0.00  0.00     0.003 A 
ATOM     10  C17  11 d         -17.154 204.190 120.444  0.00  0.00     0.007 C 
ATOM     11  C16  11 d         -15.847 203.672 119.809  0.00  0.00     0.040 C 
ATOM     12  C19  11 d         -14.113 206.168 123.291  0.00  0.00     0.068 A 
ATOM     13  C21  11 d         -16.099 205.903 124.666  0.00  0.00     0.050 A 
ATOM     14  C24  11 d         -13.481 206.933 124.273  0.00  0.00     0.035 A 
ATOM     15  C23  11 d         -14.178 207.190 125.472  0.00  0.00     0.038 A 
ATOM     16  C22  11 d         -15.497 206.692 125.685  0.00  0.00     0.103 A 
BRANCH  16  17
ATOM     17  N4   11 d         -16.179 206.973 126.871  0.00  0.00    -0.116 N 
ATOM     18  O1   11 d         -16.208 206.200 127.716  0.00  0.00    -0.532 OA
ATOM     19  O2   11 d         -16.978 207.948 126.935  0.00  0.00    -0.532 OA
ENDBRANCH  16  17
ENDBRANCH   1   4
BRANCH   1  20
ATOM     20  C4   11 d         -13.581 205.779 118.002  0.00  0.00     0.190 C 
ATOM     21  C5   11 d         -13.457 207.101 117.195  0.00  0.00     0.060 C 
ATOM     22  C6   11 d         -14.589 207.320 116.163  0.00  0.00     0.237 C 
ATOM     23  N2   11 d         -14.793 206.160 115.219  0.00  0.00    -0.067 N 
ATOM     24  C14  11 d         -14.968 204.884 116.006  0.00  0.00     0.237 C 
ATOM     25  H9   11 d         -15.724 206.341 114.707  0.00  0.00     0.280 HD
ATOM     26  C15  11 d         -13.832 204.610 117.012  0.00  0.00     0.060 C 
BRANCH  23  27
ATOM     27  C7   11 d         -13.738 206.099 114.141  0.00  0.00     0.273 C 
BRANCH  27  28
ATOM     28  C8   11 d         -14.288 206.370 112.758  0.00  0.00    -0.033 A 
ATOM     29  C9   11 d         -13.417 206.634 111.680  0.00  0.00     0.009 A 
ATOM     30  C10  11 d         -13.931 206.896 110.402  0.00  0.00     0.001 A 
ATOM     31  C11  11 d         -15.318 206.911 110.193  0.00  0.00     0.000 A 
ATOM     32  C12  11 d         -16.192 206.677 111.263  0.00  0.00     0.001 A 
ATOM     33  C13  11 d         -15.681 206.422 112.546  0.00  0.00     0.009 A 
ENDBRANCH  27  28
ENDBRANCH  23  27
ENDBRANCH   1  20
TORSDOF 5
ENDMDL
MODEL 9
REMARK VINA RESULT:      -8.6      7.963     11.874
REMARK  5 active torsions:
REMARK  status: ('A' for Active; 'I' for Inactive)
REMARK    1  A    between atoms: C3_3  and  N1_4 
REMARK    2  A    between atoms: N1_4  and  C4_5 
REMARK    3  A    between atoms: N2_8  and  C7_9 
REMARK    4  A    between atoms: C7_9  and  C8_10 
REMARK    5  A    between atoms: C22_25  and  N4_26 
ROOT
ATOM      1  N1   11 d         -14.755 204.604 118.355  0.00  0.00    -0.061 N 
ATOM      2  H2   11 d         -15.516 205.358 118.302  0.00  0.00     0.278 HD
ATOM      3  H3   11 d         -13.975 205.028 118.960  0.00  0.00     0.278 HD
ENDROOT
BRANCH   1   4
ATOM      4  C3   11 d         -15.305 203.432 119.133  0.00  0.00     0.238 C 
ATOM      5  C2   11 d         -15.841 203.965 120.442  0.00  0.00     0.073 A 
ATOM      6  C1   11 d         -17.184 203.941 120.812  0.00  0.00    -0.019 A 
ATOM      7  N3   11 d         -15.106 204.609 121.378  0.00  0.00    -0.250 NA
ATOM      8  C18  11 d         -18.289 203.441 119.923  0.00  0.00     0.042 C 
ATOM      9  C20  11 d         -17.260 204.661 121.987  0.00  0.00     0.003 A 
ATOM     10  C17  11 d         -17.801 203.281 118.469  0.00  0.00     0.007 C 
ATOM     11  C16  11 d         -16.414 202.609 118.413  0.00  0.00     0.040 C 
ATOM     12  C19  11 d         -15.973 205.030 122.325  0.00  0.00     0.068 A 
ATOM     13  C21  11 d         -18.361 205.020 122.775  0.00  0.00     0.050 A 
ATOM     14  C24  11 d         -15.712 205.758 123.488  0.00  0.00     0.035 A 
ATOM     15  C23  11 d         -16.802 206.127 124.304  0.00  0.00     0.038 A 
ATOM     16  C22  11 d         -18.140 205.777 123.958  0.00  0.00     0.103 A 
BRANCH  16  17
ATOM     17  N4   11 d         -19.208 206.168 124.769  0.00  0.00    -0.116 N 
ATOM     18  O1   11 d         -19.922 205.383 125.200  0.00  0.00    -0.532 OA
ATOM     19  O2   11 d         -19.557 207.379 124.829  0.00  0.00    -0.532 OA
ENDBRANCH  16  17
ENDBRANCH   1   4
BRANCH   1  20
ATOM     20  C4   11 d         -14.203 204.298 116.971  0.00  0.00     0.190 C 
ATOM     21  C5   11 d         -12.665 204.473 116.839  0.00  0.00     0.060 C 
ATOM     22  C6   11 d         -12.209 205.940 116.657  0.00  0.00     0.237 C 
ATOM     23  N2   11 d         -12.906 206.666 115.532  0.00  0.00    -0.067 N 
ATOM     24  C14  11 d         -14.402 206.542 115.691  0.00  0.00     0.237 C 
ATOM     25  H9   11 d         -12.666 207.710 115.644  0.00  0.00     0.280 HD
ATOM     26  C15  11 d         -14.896 205.088 115.828  0.00  0.00     0.060 C 
BRANCH  23  27
ATOM     27  C7   11 d         -12.379 206.269 114.173  0.00  0.00     0.273 C 
BRANCH  27  28
ATOM     28  C8   11 d         -11.362 207.244 113.625  0.00  0.00    -0.033 A 
ATOM     29  C9   11 d         -11.135 207.338 112.235  0.00  0.00     0.009 A 
ATOM     30  C10  11 d         -10.183 208.235 111.732  0.00  0.00     0.001 A 
ATOM     31  C11  11 d          -9.439 209.036 112.610  0.00  0.00     0.000 A 
ATOM     32  C12  11 d          -9.637 208.931 113.994  0.00  0.00     0.001 A 
ATOM     33  C13  11 d         -10.584 208.028 114.502  0.00  0.00     0.009 A 
ENDBRANCH  27  28
ENDBRANCH  23  27
ENDBRANCH   1  20
TORSDOF 5
ENDMDL
MODEL 10
REMARK VINA RESULT:      -8.5      2.232      3.379
REMARK  5 active torsions:
REMARK  status: ('A' for Active; 'I' for Inactive)
REMARK    1  A    between atoms: C3_3  and  N1_4 
REMARK    2  A    between atoms: N1_4  and  C4_5 
REMARK    3  A    between atoms: N2_8  and  C7_9 
REMARK    4  A    between atoms: C7_9  and  C8_10 
REMARK    5  A    between atoms: C22_25  and  N4_26 
ROOT
ATOM      1  N1   11 d          -9.466 208.232 115.098  0.00  0.00    -0.061 N 
ATOM      2  H2   11 d          -9.244 207.293 114.629  0.00  0.00     0.278 HD
ATOM      3  H3   11 d          -8.938 208.214 116.033  0.00  0.00     0.278 HD
ENDROOT
BRANCH   1   4
ATOM      4  C3   11 d          -8.836 209.331 114.276  0.00  0.00     0.238 C 
ATOM      5  C2   11 d          -7.336 209.164 114.364  0.00  0.00     0.073 A 
ATOM      6  C1   11 d          -6.515 208.845 113.284  0.00  0.00    -0.019 A 
ATOM      7  N3   11 d          -6.613 209.213 115.507  0.00  0.00    -0.250 NA
ATOM      8  C18  11 d          -7.024 208.558 111.898  0.00  0.00     0.042 C 
ATOM      9  C20  11 d          -5.261 208.629 113.821  0.00  0.00     0.003 A 
ATOM     10  C17  11 d          -8.549 208.334 111.905  0.00  0.00     0.007 C 
ATOM     11  C16  11 d          -9.267 209.382 112.780  0.00  0.00     0.040 C 
ATOM     12  C19  11 d          -5.344 208.892 115.174  0.00  0.00     0.068 A 
ATOM     13  C21  11 d          -4.063 208.220 113.222  0.00  0.00     0.050 A 
ATOM     14  C24  11 d          -4.224 208.785 116.001  0.00  0.00     0.035 A 
ATOM     15  C23  11 d          -3.003 208.381 115.423  0.00  0.00     0.038 A 
ATOM     16  C22  11 d          -2.903 208.082 114.033  0.00  0.00     0.103 A 
BRANCH  16  17
ATOM     17  N4   11 d          -1.689 207.665 113.481  0.00  0.00    -0.116 N 
ATOM     18  O1   11 d          -0.857 207.261 114.158  0.00  0.00    -0.532 OA
ATOM     19  O2   11 d          -1.391 207.961 112.291  0.00  0.00    -0.532 OA
ENDBRANCH  16  17
ENDBRANCH   1   4
BRANCH   1  20
ATOM     20  C4   11 d         -10.957 208.360 115.369  0.00  0.00     0.190 C 
ATOM     21  C5   11 d         -11.367 208.097 116.844  0.00  0.00     0.060 C 
ATOM     22  C6   11 d         -11.465 206.598 117.215  0.00  0.00     0.237 C 
ATOM     23  N2   11 d         -12.341 205.791 116.288  0.00  0.00    -0.067 N 
ATOM     24  C14  11 d         -11.907 206.004 114.858  0.00  0.00     0.237 C 
ATOM     25  H9   11 d         -12.158 204.754 116.518  0.00  0.00     0.280 HD
ATOM     26  C15  11 d         -11.844 207.487 114.440  0.00  0.00     0.060 C 
BRANCH  23  27
ATOM     27  C7   11 d         -13.813 206.014 116.543  0.00  0.00     0.273 C 
BRANCH  27  28
ATOM     28  C8   11 d         -14.429 204.948 117.421  0.00  0.00    -0.033 A 
ATOM     29  C9   11 d         -15.045 203.815 116.848  0.00  0.00     0.009 A 
ATOM     30  C10  11 d         -15.626 202.835 117.665  0.00  0.00     0.001 A 
ATOM     31  C11  11 d         -15.609 202.983 119.059  0.00  0.00     0.000 A 
ATOM     32  C12  11 d         -15.024 204.118 119.638  0.00  0.00     0.001 A 
ATOM     33  C13  11 d         -14.449 205.106 118.822  0.00  0.00     0.009 A 
ENDBRANCH  27  28
ENDBRANCH  23  27
ENDBRANCH   1  20
TORSDOF 5
ENDMDL
