REMARK  4 active torsions:
REMARK  status: ('A' for Active; 'I' for Inactive)
REMARK    1  A    between atoms: C10_14  and  N3_15 
REMARK    2  A    between atoms: C14_19  and  S2_22 
REMARK    3  A    between atoms: N4_25  and  S2_22 
REMARK    4  A    between atoms: N4_25  and  C20_30 
ROOT
ATOM      1  N3  <1> d           6.286  43.378  51.018  0.00  0.00    -0.320 N 
ATOM      2  C11 <1> d           5.250  42.565  50.764  0.00  0.00     0.031 A 
ATOM      3  C12 <1> d           4.111  42.350  51.715  0.00  0.00     0.025 A 
ATOM      4  C13 <1> d           2.982  41.522  51.310  0.00  0.00     0.030 A 
ATOM      5  C14 <1> d           3.020  40.815  50.008  0.00  0.00     0.109 A 
ATOM      6  C15 <1> d           4.131  41.022  49.059  0.00  0.00     0.030 A 
ATOM      7  C16 <1> d           5.261  41.886  49.445  0.00  0.00     0.025 A 
ATOM      8  H6  <1> d           7.184  43.056  50.717  0.00  0.00     0.152 HD
ENDROOT
BRANCH   1   9
ATOM      9  C10 <1> d           6.256  44.703  51.695  0.00  0.00     0.085 C 
ATOM     10  C9  <1> d           7.413  45.317  52.008  0.00  0.00     0.061 A 
ATOM     11  C1  <1> d           8.737  45.060  51.339  0.00  0.00     0.250 A 
ATOM     12  C8  <1> d           7.716  46.290  53.039  0.00  0.00     0.025 A 
ATOM     13  O1  <1> d           8.946  44.227  50.453  0.00  0.00    -0.270 OA
ATOM     14  N1  <1> d           9.661  45.876  51.886  0.00  0.00    -0.281 N 
ATOM     15  C2  <1> d           9.123  46.598  52.903  0.00  0.00     0.043 A 
ATOM     16  H1  <1> d          10.612  45.941  51.584  0.00  0.00     0.155 HD
ATOM     17  C3  <1> d           9.789  47.540  53.827  0.00  0.00     0.026 A 
ATOM     18  C4  <1> d           9.009  48.223  54.866  0.00  0.00     0.031 A 
ATOM     19  C5  <1> d           7.598  47.919  55.021  0.00  0.00     0.079 A 
ATOM     20  N2  <1> d           6.665  48.424  55.916  0.00  0.00    -0.247 NA
ATOM     21  C7  <1> d           6.915  46.919  54.102  0.00  0.00     0.049 A 
ATOM     22  C6  <1> d           5.413  47.940  55.715  0.00  0.00     0.157 A 
ATOM     23  S1  <1> d           5.294  46.756  54.516  0.00  0.00    -0.075 SA
ENDBRANCH   1   9
BRANCH   5  24
ATOM     24  S2  <1> d           1.698  39.715  49.646  0.00  0.00     0.073 S 
ATOM     25  O2  <1> d           1.786  39.285  48.283  0.00  0.00    -0.150 OA
ATOM     26  O3  <1> d           1.706  38.745  50.698  0.00  0.00    -0.150 OA
BRANCH  24  27
ATOM     27  N4  <1> d           0.281  40.571  49.753  0.00  0.00    -0.200 N 
ATOM     28  H11 <1> d          -0.349  40.303  50.482  0.00  0.00     0.175 HD
BRANCH  27  29
ATOM     29  C20 <1> d          -0.126  41.625  48.934  0.00  0.00     0.138 A 
ATOM     30  N5  <1> d          -1.097  42.529  49.488  0.00  0.00    -0.239 NA
ATOM     31  C19 <1> d          -1.712  43.553  48.690  0.00  0.00     0.113 A 
ATOM     32  C18 <1> d          -1.313  43.755  47.280  0.00  0.00     0.020 A 
ATOM     33  C17 <1> d          -0.241  42.891  46.736  0.00  0.00     0.005 A 
ATOM     34  C21 <1> d           0.369  41.820  47.530  0.00  0.00     0.045 A 
ENDBRANCH  27  29
ENDBRANCH  24  27
ENDBRANCH   5  24
TORSDOF 4
