MODEL 1
REMARK VINA RESULT:      -6.8      0.000      0.000
REMARK  4 active torsions:
REMARK  status: ('A' for Active; 'I' for Inactive)
REMARK    1  A    between atoms: C1_1  and  C12_13 
REMARK    2  A    between atoms: C3_3  and  C9_9 
REMARK    3  A    between atoms: C9_9  and  O1_10 
REMARK    4  A    between atoms: N1_14  and  O2_15 
ROOT
ATOM      1  C1   11 d           6.904  46.663  52.517  0.00  0.00    -0.004 A 
ATOM      2  C2   11 d           5.985  45.800  51.851  0.00  0.00    -0.041 A 
ATOM      3  C3   11 d           6.454  44.904  50.840  0.00  0.00    -0.022 A 
ATOM      4  C4   11 d           7.837  44.898  50.506  0.00  0.00    -0.052 A 
ATOM      5  C5   11 d           8.711  45.797  51.138  0.00  0.00     0.015 A 
ATOM      6  C6   11 d           8.266  46.681  52.130  0.00  0.00    -0.049 A 
ATOM      7  C7   11 d           9.301  47.519  52.850  0.00  0.00     0.049 C 
ATOM      8  C8   11 d           8.400  44.095  49.352  0.00  0.00     0.049 C 
ATOM      9  C11  11 d           4.490  45.990  52.060  0.00  0.00     0.050 C 
ENDROOT
BRANCH   1  10
ATOM     10  C12  11 d           6.468  47.606  53.599  0.00  0.00     0.158 C 
ATOM     11  N1   11 d           6.293  47.295  54.863  0.00  0.00    -0.148 NA
BRANCH  11  12
ATOM     12  O2   11 d           6.591  46.045  55.173  0.00  0.00    -0.266 OA
ATOM     13  H17  11 d           6.502  45.316  54.485  0.00  0.00     0.247 HD
ENDBRANCH  11  12
ENDBRANCH   1  10
BRANCH   3  14
ATOM     14  C9   11 d           5.521  43.860  50.230  0.00  0.00     0.206 C 
BRANCH  14  15
ATOM     15  O1   11 d           5.547  42.618  50.984  0.00  0.00    -0.391 OA
ATOM     16  C10  11 d           5.848  41.485  50.132  0.00  0.00     0.201 C 
ENDBRANCH  14  15
ENDBRANCH   3  14
TORSDOF 4
ENDMDL
MODEL 2
REMARK VINA RESULT:      -6.7      2.100      3.181
REMARK  4 active torsions:
REMARK  status: ('A' for Active; 'I' for Inactive)
REMARK    1  A    between atoms: C1_1  and  C12_13 
REMARK    2  A    between atoms: C3_3  and  C9_9 
REMARK    3  A    between atoms: C9_9  and  O1_10 
REMARK    4  A    between atoms: N1_14  and  O2_15 
ROOT
ATOM      1  C1   11 d           7.139  47.671  53.187  0.00  0.00    -0.004 A 
ATOM      2  C2   11 d           5.849  47.203  53.576  0.00  0.00    -0.041 A 
ATOM      3  C3   11 d           5.292  46.045  52.949  0.00  0.00    -0.022 A 
ATOM      4  C4   11 d           6.034  45.382  51.932  0.00  0.00    -0.052 A 
ATOM      5  C5   11 d           7.277  45.896  51.529  0.00  0.00     0.015 A 
ATOM      6  C6   11 d           7.836  47.029  52.134  0.00  0.00    -0.049 A 
ATOM      7  C7   11 d           9.237  47.432  51.728  0.00  0.00     0.049 C 
ATOM      8  C8   11 d           5.467  44.243  51.111  0.00  0.00     0.049 C 
ATOM      9  C11  11 d           4.985  48.058  54.491  0.00  0.00     0.050 C 
ENDROOT
BRANCH   1  10
ATOM     10  C12  11 d           7.778  48.867  53.827  0.00  0.00     0.158 C 
ATOM     11  N1   11 d           8.604  48.841  54.848  0.00  0.00    -0.148 NA
BRANCH  11  12
ATOM     12  O2   11 d           8.912  47.631  55.282  0.00  0.00    -0.266 OA
ATOM     13  H17  11 d           9.847  47.274  55.170  0.00  0.00     0.247 HD
ENDBRANCH  11  12
ENDBRANCH   1  10
BRANCH   3  14
ATOM     14  C9   11 d           3.989  45.433  53.460  0.00  0.00     0.206 C 
BRANCH  14  15
ATOM     15  O1   11 d           2.851  45.871  52.670  0.00  0.00    -0.391 OA
ATOM     16  C10  11 d           1.778  46.365  53.511  0.00  0.00     0.201 C 
ENDBRANCH  14  15
ENDBRANCH   3  14
TORSDOF 4
ENDMDL
MODEL 3
REMARK VINA RESULT:      -6.6      1.893      4.046
REMARK  4 active torsions:
REMARK  status: ('A' for Active; 'I' for Inactive)
REMARK    1  A    between atoms: C1_1  and  C12_13 
REMARK    2  A    between atoms: C3_3  and  C9_9 
REMARK    3  A    between atoms: C9_9  and  O1_10 
REMARK    4  A    between atoms: N1_14  and  O2_15 
ROOT
ATOM      1  C1   11 d           4.892  45.084  51.902  0.00  0.00    -0.004 A 
ATOM      2  C2   11 d           6.021  45.935  52.097  0.00  0.00    -0.041 A 
ATOM      3  C3   11 d           7.212  45.721  51.337  0.00  0.00    -0.022 A 
ATOM      4  C4   11 d           7.257  44.650  50.401  0.00  0.00    -0.052 A 
ATOM      5  C5   11 d           6.152  43.794  50.270  0.00  0.00     0.015 A 
ATOM      6  C6   11 d           4.977  43.990  51.008  0.00  0.00    -0.049 A 
ATOM      7  C7   11 d           3.791  43.099  50.704  0.00  0.00     0.049 C 
ATOM      8  C8   11 d           8.519  44.256  49.663  0.00  0.00     0.049 C 
ATOM      9  C11  11 d           6.028  46.917  53.258  0.00  0.00     0.050 C 
ENDROOT
BRANCH   1  10
ATOM     10  C12  11 d           3.611  45.277  52.658  0.00  0.00     0.158 C 
ATOM     11  N1   11 d           3.329  44.763  53.833  0.00  0.00    -0.148 NA
BRANCH  11  12
ATOM     12  O2   11 d           4.308  44.068  54.384  0.00  0.00    -0.266 OA
ATOM     13  H17  11 d           5.180  43.942  53.896  0.00  0.00     0.247 HD
ENDBRANCH  11  12
ENDBRANCH   1  10
BRANCH   3  14
ATOM     14  C9   11 d           8.371  46.714  51.410  0.00  0.00     0.206 C 
BRANCH  14  15
ATOM     15  O1   11 d           9.396  46.266  52.338  0.00  0.00    -0.391 OA
ATOM     16  C10  11 d           9.694  47.280  53.330  0.00  0.00     0.201 C 
ENDBRANCH  14  15
ENDBRANCH   3  14
TORSDOF 4
ENDMDL
MODEL 4
REMARK VINA RESULT:      -6.5      2.163      4.128
REMARK  4 active torsions:
REMARK  status: ('A' for Active; 'I' for Inactive)
REMARK    1  A    between atoms: C1_1  and  C12_13 
REMARK    2  A    between atoms: C3_3  and  C9_9 
REMARK    3  A    between atoms: C9_9  and  O1_10 
REMARK    4  A    between atoms: N1_14  and  O2_15 
ROOT
ATOM      1  C1   11 d           4.786  46.160  53.291  0.00  0.00    -0.004 A 
ATOM      2  C2   11 d           6.000  46.909  53.272  0.00  0.00    -0.041 A 
ATOM      3  C3   11 d           6.991  46.634  52.278  0.00  0.00    -0.022 A 
ATOM      4  C4   11 d           6.753  45.604  51.327  0.00  0.00    -0.052 A 
ATOM      5  C5   11 d           5.575  44.844  51.403  0.00  0.00     0.015 A 
ATOM      6  C6   11 d           4.594  45.101  52.370  0.00  0.00    -0.049 A 
ATOM      7  C7   11 d           3.299  44.321  52.292  0.00  0.00     0.049 C 
ATOM      8  C8   11 d           7.801  45.142  50.336  0.00  0.00     0.049 C 
ATOM      9  C11  11 d           6.327  47.838  54.431  0.00  0.00     0.050 C 
ENDROOT
BRANCH   1  10
ATOM     10  C12  11 d           3.705  46.422  54.297  0.00  0.00     0.158 C 
ATOM     11  N1   11 d           3.557  45.798  55.443  0.00  0.00    -0.148 NA
BRANCH  11  12
ATOM     12  O2   11 d           4.496  44.909  55.716  0.00  0.00    -0.266 OA
ATOM     13  H17  11 d           5.343  45.191  56.182  0.00  0.00     0.247 HD
ENDBRANCH  11  12
ENDBRANCH   1  10
BRANCH   3  14
ATOM     14  C9   11 d           8.221  47.528  52.138  0.00  0.00     0.206 C 
BRANCH  14  15
ATOM     15  O1   11 d           9.411  46.881  52.667  0.00  0.00    -0.391 OA
ATOM     16  C10  11 d           9.773  47.413  53.966  0.00  0.00     0.201 C 
ENDBRANCH  14  15
ENDBRANCH   3  14
TORSDOF 4
ENDMDL
MODEL 5
REMARK VINA RESULT:      -6.5      2.283      3.720
REMARK  4 active torsions:
REMARK  status: ('A' for Active; 'I' for Inactive)
REMARK    1  A    between atoms: C1_1  and  C12_13 
REMARK    2  A    between atoms: C3_3  and  C9_9 
REMARK    3  A    between atoms: C9_9  and  O1_10 
REMARK    4  A    between atoms: N1_14  and  O2_15 
ROOT
ATOM      1  C1   11 d           7.324  47.323  52.581  0.00  0.00    -0.004 A 
ATOM      2  C2   11 d           6.350  46.370  52.160  0.00  0.00    -0.041 A 
ATOM      3  C3   11 d           5.165  46.172  52.935  0.00  0.00    -0.022 A 
ATOM      4  C4   11 d           4.982  46.925  54.128  0.00  0.00    -0.052 A 
ATOM      5  C5   11 d           5.982  47.816  54.550  0.00  0.00     0.015 A 
ATOM      6  C6   11 d           7.149  48.021  53.801  0.00  0.00    -0.049 A 
ATOM      7  C7   11 d           8.108  49.097  54.263  0.00  0.00     0.049 C 
ATOM      8  C8   11 d           3.837  46.678  55.088  0.00  0.00     0.049 C 
ATOM      9  C11  11 d           6.675  45.420  51.017  0.00  0.00     0.050 C 
ENDROOT
BRANCH   1  10
ATOM     10  C12  11 d           8.573  47.586  51.795  0.00  0.00     0.158 C 
ATOM     11  N1   11 d           9.716  46.953  51.937  0.00  0.00    -0.148 NA
BRANCH  11  12
ATOM     12  O2   11 d           9.701  45.973  52.823  0.00  0.00    -0.266 OA
ATOM     13  H17  11 d           8.841  45.498  53.041  0.00  0.00     0.247 HD
ENDBRANCH  11  12
ENDBRANCH   1  10
BRANCH   3  14
ATOM     14  C9   11 d           4.038  45.279  52.420  0.00  0.00     0.206 C 
BRANCH  14  15
ATOM     15  O1   11 d           4.130  43.937  52.970  0.00  0.00    -0.391 OA
ATOM     16  C10  11 d           3.459  42.969  52.125  0.00  0.00     0.201 C 
ENDBRANCH  14  15
ENDBRANCH   3  14
TORSDOF 4
ENDMDL
MODEL 6
REMARK VINA RESULT:      -6.5      1.749      2.450
REMARK  4 active torsions:
REMARK  status: ('A' for Active; 'I' for Inactive)
REMARK    1  A    between atoms: C1_1  and  C12_13 
REMARK    2  A    between atoms: C3_3  and  C9_9 
REMARK    3  A    between atoms: C9_9  and  O1_10 
REMARK    4  A    between atoms: N1_14  and  O2_15 
ROOT
ATOM      1  C1   11 d           5.123  44.891  51.982  0.00  0.00    -0.004 A 
ATOM      2  C2   11 d           5.047  43.682  51.228  0.00  0.00    -0.041 A 
ATOM      3  C3   11 d           6.100  43.339  50.325  0.00  0.00    -0.022 A 
ATOM      4  C4   11 d           7.209  44.220  50.183  0.00  0.00    -0.052 A 
ATOM      5  C5   11 d           7.232  45.430  50.894  0.00  0.00     0.015 A 
ATOM      6  C6   11 d           6.207  45.781  51.783  0.00  0.00    -0.049 A 
ATOM      7  C7   11 d           6.381  47.039  52.606  0.00  0.00     0.049 C 
ATOM      8  C8   11 d           8.294  44.016  49.147  0.00  0.00     0.049 C 
ATOM      9  C11  11 d           3.754  42.881  51.224  0.00  0.00     0.050 C 
ENDROOT
BRANCH   1  10
ATOM     10  C12  11 d           4.057  45.288  52.958  0.00  0.00     0.158 C 
ATOM     11  N1   11 d           4.012  44.948  54.226  0.00  0.00    -0.148 NA
BRANCH  11  12
ATOM     12  O2   11 d           5.045  44.239  54.646  0.00  0.00    -0.266 OA
ATOM     13  H17  11 d           5.117  43.969  55.614  0.00  0.00     0.247 HD
ENDBRANCH  11  12
ENDBRANCH   1  10
BRANCH   3  14
ATOM     14  C9   11 d           6.119  41.978  49.631  0.00  0.00     0.206 C 
BRANCH  14  15
ATOM     15  O1   11 d           5.543  42.052  48.299  0.00  0.00    -0.391 OA
ATOM     16  C10  11 d           4.608  40.970  48.062  0.00  0.00     0.201 C 
ENDBRANCH  14  15
ENDBRANCH   3  14
TORSDOF 4
ENDMDL
MODEL 7
REMARK VINA RESULT:      -6.4      2.557      4.594
REMARK  4 active torsions:
REMARK  status: ('A' for Active; 'I' for Inactive)
REMARK    1  A    between atoms: C1_1  and  C12_13 
REMARK    2  A    between atoms: C3_3  and  C9_9 
REMARK    3  A    between atoms: C9_9  and  O1_10 
REMARK    4  A    between atoms: N1_14  and  O2_15 
ROOT
ATOM      1  C1   11 d           5.666  45.465  53.088  0.00  0.00    -0.004 A 
ATOM      2  C2   11 d           6.649  45.976  52.190  0.00  0.00    -0.041 A 
ATOM      3  C3   11 d           7.477  47.071  52.588  0.00  0.00    -0.022 A 
ATOM      4  C4   11 d           7.296  47.645  53.877  0.00  0.00    -0.052 A 
ATOM      5  C5   11 d           6.284  47.160  54.720  0.00  0.00     0.015 A 
ATOM      6  C6   11 d           5.465  46.087  54.344  0.00  0.00    -0.049 A 
ATOM      7  C7   11 d           4.490  45.545  55.369  0.00  0.00     0.049 C 
ATOM      8  C8   11 d           8.020  48.897  54.328  0.00  0.00     0.049 C 
ATOM      9  C11  11 d           6.664  45.501  50.744  0.00  0.00     0.050 C 
ENDROOT
BRANCH   1  10
ATOM     10  C12  11 d           4.786  44.305  52.729  0.00  0.00     0.158 C 
ATOM     11  N1   11 d           3.588  44.386  52.196  0.00  0.00    -0.148 NA
BRANCH  11  12
ATOM     12  O2   11 d           3.186  45.614  51.921  0.00  0.00    -0.266 OA
ATOM     13  H17  11 d           3.267  45.978  50.985  0.00  0.00     0.247 HD
ENDBRANCH  11  12
ENDBRANCH   1  10
BRANCH   3  14
ATOM     14  C9   11 d           8.640  47.528  51.710  0.00  0.00     0.206 C 
BRANCH  14  15
ATOM     15  O1   11 d           9.898  46.948  52.151  0.00  0.00    -0.391 OA
ATOM     16  C10  11 d          10.214  45.740  51.415  0.00  0.00     0.201 C 
ENDBRANCH  14  15
ENDBRANCH   3  14
TORSDOF 4
ENDMDL
MODEL 8
REMARK VINA RESULT:      -6.4      2.338      4.743
REMARK  4 active torsions:
REMARK  status: ('A' for Active; 'I' for Inactive)
REMARK    1  A    between atoms: C1_1  and  C12_13 
REMARK    2  A    between atoms: C3_3  and  C9_9 
REMARK    3  A    between atoms: C9_9  and  O1_10 
REMARK    4  A    between atoms: N1_14  and  O2_15 
ROOT
ATOM      1  C1   11 d           5.433  44.807  52.695  0.00  0.00    -0.004 A 
ATOM      2  C2   11 d           5.846  45.685  53.741  0.00  0.00    -0.041 A 
ATOM      3  C3   11 d           6.897  46.625  53.507  0.00  0.00    -0.022 A 
ATOM      4  C4   11 d           7.526  46.661  52.232  0.00  0.00    -0.052 A 
ATOM      5  C5   11 d           7.138  45.748  51.238  0.00  0.00     0.015 A 
ATOM      6  C6   11 d           6.110  44.821  51.451  0.00  0.00    -0.049 A 
ATOM      7  C7   11 d           5.669  43.968  50.281  0.00  0.00     0.049 C 
ATOM      8  C8   11 d           8.742  47.515  51.939  0.00  0.00     0.049 C 
ATOM      9  C11  11 d           5.322  45.470  55.152  0.00  0.00     0.050 C 
ENDROOT
BRANCH   1  10
ATOM     10  C12  11 d           4.321  43.818  52.880  0.00  0.00     0.158 C 
ATOM     11  N1   11 d           3.042  44.057  52.695  0.00  0.00    -0.148 NA
BRANCH  11  12
ATOM     12  O2   11 d           2.763  45.272  52.257  0.00  0.00    -0.266 OA
ATOM     13  H17  11 d           3.225  46.074  52.654  0.00  0.00     0.247 HD
ENDBRANCH  11  12
ENDBRANCH   1  10
BRANCH   3  14
ATOM     14  C9   11 d           7.245  47.681  54.555  0.00  0.00     0.206 C 
BRANCH  14  15
ATOM     15  O1   11 d           6.676  48.974  54.216  0.00  0.00    -0.391 OA
ATOM     16  C10  11 d           5.397  49.180  54.866  0.00  0.00     0.201 C 
ENDBRANCH  14  15
ENDBRANCH   3  14
TORSDOF 4
ENDMDL
MODEL 9
REMARK VINA RESULT:      -6.3      2.432      4.236
REMARK  4 active torsions:
REMARK  status: ('A' for Active; 'I' for Inactive)
REMARK    1  A    between atoms: C1_1  and  C12_13 
REMARK    2  A    between atoms: C3_3  and  C9_9 
REMARK    3  A    between atoms: C9_9  and  O1_10 
REMARK    4  A    between atoms: N1_14  and  O2_15 
ROOT
ATOM      1  C1   11 d           6.910  46.521  52.437  0.00  0.00    -0.004 A 
ATOM      2  C2   11 d           6.131  46.576  53.631  0.00  0.00    -0.041 A 
ATOM      3  C3   11 d           5.075  45.635  53.837  0.00  0.00    -0.022 A 
ATOM      4  C4   11 d           4.808  44.661  52.835  0.00  0.00    -0.052 A 
ATOM      5  C5   11 d           5.553  44.664  51.645  0.00  0.00     0.015 A 
ATOM      6  C6   11 d           6.591  45.579  51.428  0.00  0.00    -0.049 A 
ATOM      7  C7   11 d           7.426  45.423  50.175  0.00  0.00     0.049 C 
ATOM      8  C8   11 d           3.621  43.723  52.896  0.00  0.00     0.049 C 
ATOM      9  C11  11 d           6.284  47.762  54.572  0.00  0.00     0.050 C 
ENDROOT
BRANCH   1  10
ATOM     10  C12  11 d           8.043  47.469  52.181  0.00  0.00     0.158 C 
ATOM     11  N1   11 d           9.279  47.320  52.601  0.00  0.00    -0.148 NA
BRANCH  11  12
ATOM     12  O2   11 d           9.510  46.195  53.255  0.00  0.00    -0.266 OA
ATOM     13  H17  11 d           9.955  45.419  52.791  0.00  0.00     0.247 HD
ENDBRANCH  11  12
ENDBRANCH   1  10
BRANCH   3  14
ATOM     14  C9   11 d           4.337  45.572  55.173  0.00  0.00     0.206 C 
BRANCH  14  15
ATOM     15  O1   11 d           3.203  46.481  55.197  0.00  0.00    -0.391 OA
ATOM     16  C10  11 d           1.968  45.782  55.493  0.00  0.00     0.201 C 
ENDBRANCH  14  15
ENDBRANCH   3  14
TORSDOF 4
ENDMDL
MODEL 10
REMARK VINA RESULT:      -6.3      1.743      3.014
REMARK  4 active torsions:
REMARK  status: ('A' for Active; 'I' for Inactive)
REMARK    1  A    between atoms: C1_1  and  C12_13 
REMARK    2  A    between atoms: C3_3  and  C9_9 
REMARK    3  A    between atoms: C9_9  and  O1_10 
REMARK    4  A    between atoms: N1_14  and  O2_15 
ROOT
ATOM      1  C1   11 d           7.022  46.487  52.112  0.00  0.00    -0.004 A 
ATOM      2  C2   11 d           6.730  45.444  51.184  0.00  0.00    -0.041 A 
ATOM      3  C3   11 d           5.619  44.575  51.416  0.00  0.00    -0.022 A 
ATOM      4  C4   11 d           4.825  44.759  52.583  0.00  0.00    -0.052 A 
ATOM      5  C5   11 d           5.169  45.757  53.508  0.00  0.00     0.015 A 
ATOM      6  C6   11 d           6.255  46.616  53.295  0.00  0.00    -0.049 A 
ATOM      7  C7   11 d           6.469  47.748  54.278  0.00  0.00     0.049 C 
ATOM      8  C8   11 d           3.725  43.800  52.988  0.00  0.00     0.049 C 
ATOM      9  C11  11 d           7.723  45.124  50.077  0.00  0.00     0.050 C 
ENDROOT
BRANCH   1  10
ATOM     10  C12  11 d           8.162  47.439  51.905  0.00  0.00     0.158 C 
ATOM     11  N1   11 d           9.383  47.285  52.365  0.00  0.00    -0.148 NA
BRANCH  11  12
ATOM     12  O2   11 d           9.593  46.153  53.014  0.00  0.00    -0.266 OA
ATOM     13  H17  11 d           9.032  45.341  52.813  0.00  0.00     0.247 HD
ENDBRANCH  11  12
ENDBRANCH   1  10
BRANCH   3  14
ATOM     14  C9   11 d           5.190  43.559  50.360  0.00  0.00     0.206 C 
BRANCH  14  15
ATOM     15  O1   11 d           5.784  42.255  50.604  0.00  0.00    -0.391 OA
ATOM     16  C10  11 d           5.902  41.486  49.381  0.00  0.00     0.201 C 
ENDBRANCH  14  15
ENDBRANCH   3  14
TORSDOF 4
ENDMDL
