MODEL 1
REMARK VINA RESULT:     -11.1      0.000      0.000
REMARK  4 active torsions:
REMARK  status: ('A' for Active; 'I' for Inactive)
REMARK    1  A    between atoms: C4_5  and  C11_16 
REMARK    2  A    between atoms: C8_10  and  N3_11 
REMARK    3  A    between atoms: C12_17  and  C13_18 
REMARK    4  A    between atoms: C16_21  and  N4_22 
ROOT
ATOM      1  C1   11 d         -14.529 206.623 113.909  0.00  0.00     0.266 A 
ATOM      2  C2   11 d         -14.857 206.750 112.543  0.00  0.00     0.061 A 
ATOM      3  C3   11 d         -13.820 207.083 111.647  0.00  0.00     0.074 A 
ATOM      4  N1   11 d         -12.560 207.284 112.113  0.00  0.00    -0.230 NA
ATOM      5  C4   11 d         -12.250 207.181 113.433  0.00  0.00     0.138 A 
ATOM      6  N2   11 d         -13.232 206.818 114.341  0.00  0.00    -0.262 N 
ATOM      7  C5   11 d         -12.916 206.596 115.737  0.00  0.00     0.044 A 
ATOM      8  C6   11 d         -13.481 207.411 116.735  0.00  0.00     0.032 A 
ATOM      9  C7   11 d         -13.128 207.233 118.081  0.00  0.00     0.038 A 
ATOM     10  C8   11 d         -12.196 206.238 118.463  0.00  0.00     0.103 A 
ATOM     11  C9   11 d         -11.654 205.410 117.452  0.00  0.00     0.038 A 
ATOM     12  C10  11 d         -12.012 205.585 116.108  0.00  0.00     0.032 A 
ATOM     13  C19  11 d         -14.087 207.213 110.274  0.00  0.00     0.032 A 
ATOM     14  C20  11 d         -15.386 207.010 109.788  0.00  0.00     0.002 A 
ATOM     15  C21  11 d         -16.423 206.677 110.673  0.00  0.00     0.001 A 
ATOM     16  C22  11 d         -16.164 206.546 112.046  0.00  0.00     0.019 A 
ATOM     17  O5   11 d         -15.426 206.299 114.733  0.00  0.00    -0.267 OA
ENDROOT
BRANCH   5  18
ATOM     18  C11  11 d         -10.820 207.456 113.752  0.00  0.00     0.052 C 
ATOM     19  C12  11 d         -10.071 208.395 113.131  0.00  0.00     0.015 C 
BRANCH  19  20
ATOM     20  C13  11 d          -8.673 208.772 113.486  0.00  0.00    -0.036 A 
ATOM     21  C14  11 d          -8.324 209.521 114.631  0.00  0.00     0.014 A 
ATOM     22  C15  11 d          -6.988 209.873 114.876  0.00  0.00     0.037 A 
ATOM     23  C16  11 d          -5.958 209.493 113.986  0.00  0.00     0.102 A 
ATOM     24  C17  11 d          -6.311 208.732 112.850  0.00  0.00     0.037 A 
ATOM     25  C18  11 d          -7.646 208.378 112.606  0.00  0.00     0.014 A 
BRANCH  23  26
ATOM     26  N4   11 d          -4.625 209.848 114.221  0.00  0.00    -0.116 N 
ATOM     27  O3   11 d          -3.995 210.321 113.389  0.00  0.00    -0.532 OA
ATOM     28  O4   11 d          -4.036 209.485 115.276  0.00  0.00    -0.532 OA
ENDBRANCH  23  26
ENDBRANCH  19  20
ENDBRANCH   5  18
BRANCH  10  29
ATOM     29  N3   11 d         -11.821 206.069 119.800  0.00  0.00    -0.116 N 
ATOM     30  O1   11 d         -10.713 206.054 120.093  0.00  0.00    -0.532 OA
ATOM     31  O2   11 d         -12.667 205.704 120.663  0.00  0.00    -0.532 OA
ENDBRANCH  10  29
TORSDOF 4
ENDMDL
MODEL 2
REMARK VINA RESULT:      -9.4      3.352      7.565
REMARK  4 active torsions:
REMARK  status: ('A' for Active; 'I' for Inactive)
REMARK    1  A    between atoms: C4_5  and  C11_16 
REMARK    2  A    between atoms: C8_10  and  N3_11 
REMARK    3  A    between atoms: C12_17  and  C13_18 
REMARK    4  A    between atoms: C16_21  and  N4_22 
ROOT
ATOM      1  C1   11 d         -10.058 208.193 113.974  0.00  0.00     0.266 A 
ATOM      2  C2   11 d         -10.557 207.888 112.690  0.00  0.00     0.061 A 
ATOM      3  C3   11 d         -11.564 206.905 112.593  0.00  0.00     0.074 A 
ATOM      4  N1   11 d         -12.010 206.280 113.713  0.00  0.00    -0.230 NA
ATOM      5  C4   11 d         -11.514 206.560 114.948  0.00  0.00     0.138 A 
ATOM      6  N2   11 d         -10.551 207.546 115.090  0.00  0.00    -0.262 N 
ATOM      7  C5   11 d         -10.077 207.946 116.399  0.00  0.00     0.044 A 
ATOM      8  C6   11 d          -8.729 207.759 116.757  0.00  0.00     0.032 A 
ATOM      9  C7   11 d          -8.285 208.092 118.046  0.00  0.00     0.038 A 
ATOM     10  C8   11 d          -9.178 208.615 119.011  0.00  0.00     0.103 A 
ATOM     11  C9   11 d         -10.525 208.820 118.630  0.00  0.00     0.038 A 
ATOM     12  C10  11 d         -10.967 208.493 117.341  0.00  0.00     0.032 A 
ATOM     13  C19  11 d         -12.104 206.568 111.341  0.00  0.00     0.032 A 
ATOM     14  C20  11 d         -11.644 207.208 110.181  0.00  0.00     0.002 A 
ATOM     15  C21  11 d         -10.644 208.187 110.270  0.00  0.00     0.001 A 
ATOM     16  C22  11 d         -10.099 208.529 111.517  0.00  0.00     0.019 A 
ATOM     17  O5   11 d          -9.177 209.085 114.099  0.00  0.00    -0.267 OA
ENDROOT
BRANCH   5  18
ATOM     18  C11  11 d         -12.116 205.757 116.050  0.00  0.00     0.052 C 
ATOM     19  C12  11 d         -13.367 205.942 116.527  0.00  0.00     0.015 C 
BRANCH  19  20
ATOM     20  C13  11 d         -14.045 205.099 117.553  0.00  0.00    -0.036 A 
ATOM     21  C14  11 d         -14.749 203.911 117.259  0.00  0.00     0.014 A 
ATOM     22  C15  11 d         -15.396 203.193 118.276  0.00  0.00     0.037 A 
ATOM     23  C16  11 d         -15.365 203.637 119.618  0.00  0.00     0.102 A 
ATOM     24  C17  11 d         -14.647 204.819 119.908  0.00  0.00     0.037 A 
ATOM     25  C18  11 d         -13.999 205.536 118.892  0.00  0.00     0.014 A 
BRANCH  23  26
ATOM     26  N4   11 d         -16.016 202.930 120.635  0.00  0.00    -0.116 N 
ATOM     27  O3   11 d         -15.738 203.104 121.732  0.00  0.00    -0.532 OA
ATOM     28  O4   11 d         -16.774 201.959 120.361  0.00  0.00    -0.532 OA
ENDBRANCH  23  26
ENDBRANCH  19  20
ENDBRANCH   5  18
BRANCH  10  29
ATOM     29  N3   11 d          -8.748 208.928 120.305  0.00  0.00    -0.116 N 
ATOM     30  O1   11 d          -9.039 208.259 121.189  0.00  0.00    -0.532 OA
ATOM     31  O2   11 d          -8.237 210.054 120.557  0.00  0.00    -0.532 OA
ENDBRANCH  10  29
TORSDOF 4
ENDMDL
MODEL 3
REMARK VINA RESULT:      -9.4      2.978      8.179
REMARK  4 active torsions:
REMARK  status: ('A' for Active; 'I' for Inactive)
REMARK    1  A    between atoms: C4_5  and  C11_16 
REMARK    2  A    between atoms: C8_10  and  N3_11 
REMARK    3  A    between atoms: C12_17  and  C13_18 
REMARK    4  A    between atoms: C16_21  and  N4_22 
ROOT
ATOM      1  C1   11 d         -10.773 207.975 112.498  0.00  0.00     0.266 A 
ATOM      2  C2   11 d          -9.461 208.364 112.839  0.00  0.00     0.061 A 
ATOM      3  C3   11 d          -9.162 208.538 114.207  0.00  0.00     0.074 A 
ATOM      4  N1   11 d         -10.127 208.344 115.141  0.00  0.00    -0.230 NA
ATOM      5  C4   11 d         -11.398 207.989 114.809  0.00  0.00     0.138 A 
ATOM      6  N2   11 d         -11.722 207.772 113.480  0.00  0.00    -0.262 N 
ATOM      7  C5   11 d         -13.035 207.290 113.099  0.00  0.00     0.044 A 
ATOM      8  C6   11 d         -13.880 208.081 112.299  0.00  0.00     0.032 A 
ATOM      9  C7   11 d         -15.172 207.639 111.980  0.00  0.00     0.038 A 
ATOM     10  C8   11 d         -15.655 206.397 112.457  0.00  0.00     0.103 A 
ATOM     11  C9   11 d         -14.786 205.601 113.240  0.00  0.00     0.038 A 
ATOM     12  C10  11 d         -13.492 206.041 113.553  0.00  0.00     0.032 A 
ATOM     13  C19  11 d          -7.868 208.915 114.604  0.00  0.00     0.032 A 
ATOM     14  C20  11 d          -6.868 209.119 113.643  0.00  0.00     0.002 A 
ATOM     15  C21  11 d          -7.157 208.947 112.281  0.00  0.00     0.001 A 
ATOM     16  C22  11 d          -8.448 208.571 111.876  0.00  0.00     0.019 A 
ATOM     17  O5   11 d         -11.066 207.784 111.287  0.00  0.00    -0.267 OA
ENDROOT
BRANCH   5  18
ATOM     18  C11  11 d         -12.319 207.842 115.972  0.00  0.00     0.052 C 
ATOM     19  C12  11 d         -12.541 206.678 116.622  0.00  0.00     0.015 C 
BRANCH  19  20
ATOM     20  C13  11 d         -13.371 206.506 117.848  0.00  0.00    -0.036 A 
ATOM     21  C14  11 d         -13.730 207.563 118.713  0.00  0.00     0.014 A 
ATOM     22  C15  11 d         -14.480 207.315 119.872  0.00  0.00     0.037 A 
ATOM     23  C16  11 d         -14.894 206.005 120.208  0.00  0.00     0.102 A 
ATOM     24  C17  11 d         -14.544 204.954 119.332  0.00  0.00     0.037 A 
ATOM     25  C18  11 d         -13.795 205.202 118.172  0.00  0.00     0.014 A 
BRANCH  23  26
ATOM     26  N4   11 d         -15.635 205.751 121.368  0.00  0.00    -0.116 N 
ATOM     27  O3   11 d         -16.455 204.951 121.369  0.00  0.00    -0.532 OA
ATOM     28  O4   11 d         -15.553 206.517 122.367  0.00  0.00    -0.532 OA
ENDBRANCH  23  26
ENDBRANCH  19  20
ENDBRANCH   5  18
BRANCH  10  29
ATOM     29  N3   11 d         -16.951 205.959 112.163  0.00  0.00    -0.116 N 
ATOM     30  O1   11 d         -17.207 204.843 112.203  0.00  0.00    -0.532 OA
ATOM     31  O2   11 d         -17.788 206.741 111.634  0.00  0.00    -0.532 OA
ENDBRANCH  10  29
TORSDOF 4
ENDMDL
MODEL 4
REMARK VINA RESULT:      -9.2      2.073      6.417
REMARK  4 active torsions:
REMARK  status: ('A' for Active; 'I' for Inactive)
REMARK    1  A    between atoms: C4_5  and  C11_16 
REMARK    2  A    between atoms: C8_10  and  N3_11 
REMARK    3  A    between atoms: C12_17  and  C13_18 
REMARK    4  A    between atoms: C16_21  and  N4_22 
ROOT
ATOM      1  C1   11 d         -11.399 207.623 111.647  0.00  0.00     0.266 A 
ATOM      2  C2   11 d         -12.626 206.989 111.364  0.00  0.00     0.061 A 
ATOM      3  C3   11 d         -13.217 206.217 112.387  0.00  0.00     0.074 A 
ATOM      4  N1   11 d         -12.596 206.096 113.588  0.00  0.00    -0.230 NA
ATOM      5  C4   11 d         -11.402 206.691 113.852  0.00  0.00     0.138 A 
ATOM      6  N2   11 d         -10.808 207.489 112.887  0.00  0.00    -0.262 N 
ATOM      7  C5   11 d          -9.591 208.224 113.169  0.00  0.00     0.044 A 
ATOM      8  C6   11 d          -8.409 207.945 112.460  0.00  0.00     0.032 A 
ATOM      9  C7   11 d          -7.218 208.616 112.775  0.00  0.00     0.038 A 
ATOM     10  C8   11 d          -7.177 209.580 113.810  0.00  0.00     0.103 A 
ATOM     11  C9   11 d          -8.380 209.868 114.499  0.00  0.00     0.038 A 
ATOM     12  C10  11 d          -9.571 209.201 114.180  0.00  0.00     0.032 A 
ATOM     13  C19  11 d         -14.444 205.570 112.164  0.00  0.00     0.032 A 
ATOM     14  C20  11 d         -15.088 205.690 110.925  0.00  0.00     0.002 A 
ATOM     15  C21  11 d         -14.507 206.456 109.903  0.00  0.00     0.001 A 
ATOM     16  C22  11 d         -13.281 207.105 110.117  0.00  0.00     0.019 A 
ATOM     17  O5   11 d         -10.857 208.342 110.764  0.00  0.00    -0.267 OA
ENDROOT
BRANCH   5  18
ATOM     18  C11  11 d         -10.871 206.426 115.219  0.00  0.00     0.052 C 
ATOM     19  C12  11 d         -11.285 207.071 116.332  0.00  0.00     0.015 C 
BRANCH  19  20
ATOM     20  C13  11 d         -10.858 206.767 117.728  0.00  0.00    -0.036 A 
ATOM     21  C14  11 d          -9.657 207.234 118.305  0.00  0.00     0.014 A 
ATOM     22  C15  11 d          -9.303 206.871 119.614  0.00  0.00     0.037 A 
ATOM     23  C16  11 d         -10.134 206.028 120.387  0.00  0.00     0.102 A 
ATOM     24  C17  11 d         -11.341 205.575 119.810  0.00  0.00     0.037 A 
ATOM     25  C18  11 d         -11.695 205.940 118.502  0.00  0.00     0.014 A 
BRANCH  23  26
ATOM     26  N4   11 d          -9.783 205.656 121.690  0.00  0.00    -0.116 N 
ATOM     27  O3   11 d          -8.982 204.857 121.869  0.00  0.00    -0.532 OA
ATOM     28  O4   11 d         -10.465 206.045 122.678  0.00  0.00    -0.532 OA
ENDBRANCH  23  26
ENDBRANCH  19  20
ENDBRANCH   5  18
BRANCH  10  29
ATOM     29  N3   11 d          -5.989 210.237 114.146  0.00  0.00    -0.116 N 
ATOM     30  O1   11 d          -4.992 209.895 113.697  0.00  0.00    -0.532 OA
ATOM     31  O2   11 d          -5.957 211.055 115.106  0.00  0.00    -0.532 OA
ENDBRANCH  10  29
TORSDOF 4
ENDMDL
MODEL 5
REMARK VINA RESULT:      -9.1      2.640      7.644
REMARK  4 active torsions:
REMARK  status: ('A' for Active; 'I' for Inactive)
REMARK    1  A    between atoms: C4_5  and  C11_16 
REMARK    2  A    between atoms: C8_10  and  N3_11 
REMARK    3  A    between atoms: C12_17  and  C13_18 
REMARK    4  A    between atoms: C16_21  and  N4_22 
ROOT
ATOM      1  C1   11 d          -8.206 208.218 117.428  0.00  0.00     0.266 A 
ATOM      2  C2   11 d          -7.086 208.782 116.782  0.00  0.00     0.061 A 
ATOM      3  C3   11 d          -7.243 209.205 115.445  0.00  0.00     0.074 A 
ATOM      4  N1   11 d          -8.438 209.050 114.822  0.00  0.00    -0.230 NA
ATOM      5  C4   11 d          -9.512 208.487 115.439  0.00  0.00     0.138 A 
ATOM      6  N2   11 d          -9.410 208.093 116.764  0.00  0.00    -0.262 N 
ATOM      7  C5   11 d         -10.561 207.589 117.485  0.00  0.00     0.044 A 
ATOM      8  C6   11 d         -10.575 206.270 117.973  0.00  0.00     0.032 A 
ATOM      9  C7   11 d         -11.712 205.764 118.619  0.00  0.00     0.038 A 
ATOM     10  C8   11 d         -12.868 206.563 118.790  0.00  0.00     0.103 A 
ATOM     11  C9   11 d         -12.831 207.896 118.315  0.00  0.00     0.038 A 
ATOM     12  C10  11 d         -11.692 208.402 117.675  0.00  0.00     0.032 A 
ATOM     13  C19  11 d          -6.163 209.782 114.756  0.00  0.00     0.032 A 
ATOM     14  C20  11 d          -4.925 209.942 115.395  0.00  0.00     0.002 A 
ATOM     15  C21  11 d          -4.762 209.524 116.724  0.00  0.00     0.001 A 
ATOM     16  C22  11 d          -5.835 208.945 117.419  0.00  0.00     0.019 A 
ATOM     17  O5   11 d          -8.108 207.854 118.631  0.00  0.00    -0.267 OA
ENDROOT
BRANCH   5  18
ATOM     18  C11  11 d         -10.730 208.387 114.586  0.00  0.00     0.052 C 
ATOM     19  C12  11 d         -11.170 207.238 114.025  0.00  0.00     0.015 C 
BRANCH  19  20
ATOM     20  C13  11 d         -12.435 207.071 113.253  0.00  0.00    -0.036 A 
ATOM     21  C14  11 d         -12.490 206.621 111.916  0.00  0.00     0.014 A 
ATOM     22  C15  11 d         -13.717 206.529 111.242  0.00  0.00     0.037 A 
ATOM     23  C16  11 d         -14.928 206.887 111.877  0.00  0.00     0.102 A 
ATOM     24  C17  11 d         -14.868 207.324 113.219  0.00  0.00     0.037 A 
ATOM     25  C18  11 d         -13.642 207.413 113.894  0.00  0.00     0.014 A 
BRANCH  23  26
ATOM     26  N4   11 d         -16.154 206.806 111.207  0.00  0.00    -0.116 N 
ATOM     27  O3   11 d         -16.200 206.905 110.067  0.00  0.00    -0.532 OA
ATOM     28  O4   11 d         -17.241 206.815 111.848  0.00  0.00    -0.532 OA
ENDBRANCH  23  26
ENDBRANCH  19  20
ENDBRANCH   5  18
BRANCH  10  29
ATOM     29  N3   11 d         -14.015 206.060 119.412  0.00  0.00    -0.116 N 
ATOM     30  O1   11 d         -14.436 206.569 120.349  0.00  0.00    -0.532 OA
ATOM     31  O2   11 d         -14.469 204.925 119.101  0.00  0.00    -0.532 OA
ENDBRANCH  10  29
TORSDOF 4
ENDMDL
MODEL 6
REMARK VINA RESULT:      -8.7      3.300      4.495
REMARK  4 active torsions:
REMARK  status: ('A' for Active; 'I' for Inactive)
REMARK    1  A    between atoms: C4_5  and  C11_16 
REMARK    2  A    between atoms: C8_10  and  N3_11 
REMARK    3  A    between atoms: C12_17  and  C13_18 
REMARK    4  A    between atoms: C16_21  and  N4_22 
ROOT
ATOM      1  C1   11 d         -12.373 206.913 113.940  0.00  0.00     0.266 A 
ATOM      2  C2   11 d         -11.747 207.290 112.733  0.00  0.00     0.061 A 
ATOM      3  C3   11 d         -10.576 208.072 112.817  0.00  0.00     0.074 A 
ATOM      4  N1   11 d         -10.097 208.446 114.031  0.00  0.00    -0.230 NA
ATOM      5  C4   11 d         -10.714 208.099 115.193  0.00  0.00     0.138 A 
ATOM      6  N2   11 d         -11.845 207.300 115.155  0.00  0.00    -0.262 N 
ATOM      7  C5   11 d         -12.466 206.823 116.374  0.00  0.00     0.044 A 
ATOM      8  C6   11 d         -13.778 207.207 116.704  0.00  0.00     0.032 A 
ATOM      9  C7   11 d         -14.357 206.793 117.913  0.00  0.00     0.038 A 
ATOM     10  C8   11 d         -13.636 205.987 118.826  0.00  0.00     0.103 A 
ATOM     11  C9   11 d         -12.326 205.588 118.470  0.00  0.00     0.038 A 
ATOM     12  C10  11 d         -11.750 205.997 117.260  0.00  0.00     0.032 A 
ATOM     13  C19  11 d          -9.905 208.468 111.648  0.00  0.00     0.032 A 
ATOM     14  C20  11 d         -10.397 208.086 110.392  0.00  0.00     0.002 A 
ATOM     15  C21  11 d         -11.561 207.308 110.300  0.00  0.00     0.001 A 
ATOM     16  C22  11 d         -12.237 206.909 111.463  0.00  0.00     0.019 A 
ATOM     17  O5   11 d         -13.406 206.191 113.901  0.00  0.00    -0.267 OA
ENDROOT
BRANCH   5  18
ATOM     18  C11  11 d         -10.049 208.619 116.422  0.00  0.00     0.052 C 
ATOM     19  C12  11 d          -9.138 207.928 117.142  0.00  0.00     0.015 C 
BRANCH  19  20
ATOM     20  C13  11 d          -8.374 208.446 118.314  0.00  0.00    -0.036 A 
ATOM     21  C14  11 d          -6.977 208.646 118.319  0.00  0.00     0.014 A 
ATOM     22  C15  11 d          -6.324 209.099 119.475  0.00  0.00     0.037 A 
ATOM     23  C16  11 d          -7.042 209.363 120.664  0.00  0.00     0.102 A 
ATOM     24  C17  11 d          -8.442 209.174 120.648  0.00  0.00     0.037 A 
ATOM     25  C18  11 d          -9.095 208.724 119.492  0.00  0.00     0.014 A 
BRANCH  23  26
ATOM     26  N4   11 d          -6.395 209.807 121.823  0.00  0.00    -0.116 N 
ATOM     27  O3   11 d          -6.997 210.252 122.689  0.00  0.00    -0.532 OA
ATOM     28  O4   11 d          -5.137 209.904 121.862  0.00  0.00    -0.532 OA
ENDBRANCH  23  26
ENDBRANCH  19  20
ENDBRANCH   5  18
BRANCH  10  29
ATOM     29  N3   11 d         -14.196 205.588 120.044  0.00  0.00    -0.116 N 
ATOM     30  O1   11 d         -14.982 204.754 120.074  0.00  0.00    -0.532 OA
ATOM     31  O2   11 d         -14.025 206.278 121.086  0.00  0.00    -0.532 OA
ENDBRANCH  10  29
TORSDOF 4
ENDMDL
MODEL 7
REMARK VINA RESULT:      -8.7      3.539      9.201
REMARK  4 active torsions:
REMARK  status: ('A' for Active; 'I' for Inactive)
REMARK    1  A    between atoms: C4_5  and  C11_16 
REMARK    2  A    between atoms: C8_10  and  N3_11 
REMARK    3  A    between atoms: C12_17  and  C13_18 
REMARK    4  A    between atoms: C16_21  and  N4_22 
ROOT
ATOM      1  C1   11 d          -2.870 209.048 112.723  0.00  0.00     0.266 A 
ATOM      2  C2   11 d          -2.527 208.754 111.387  0.00  0.00     0.061 A 
ATOM      3  C3   11 d          -3.545 208.268 110.539  0.00  0.00     0.074 A 
ATOM      4  N1   11 d          -4.800 208.086 111.024  0.00  0.00    -0.230 NA
ATOM      5  C4   11 d          -5.124 208.350 112.318  0.00  0.00     0.138 A 
ATOM      6  N2   11 d          -4.162 208.864 113.173  0.00  0.00    -0.262 N 
ATOM      7  C5   11 d          -4.496 209.257 114.527  0.00  0.00     0.044 A 
ATOM      8  C6   11 d          -3.910 208.602 115.625  0.00  0.00     0.032 A 
ATOM      9  C7   11 d          -4.280 208.943 116.934  0.00  0.00     0.038 A 
ATOM     10  C8   11 d          -5.248 209.945 117.180  0.00  0.00     0.103 A 
ATOM     11  C9   11 d          -5.812 210.613 116.066  0.00  0.00     0.038 A 
ATOM     12  C10  11 d          -5.438 210.275 114.758  0.00  0.00     0.032 A 
ATOM     13  C19  11 d          -3.263 207.968 109.197  0.00  0.00     0.032 A 
ATOM     14  C20  11 d          -1.968 208.152 108.691  0.00  0.00     0.002 A 
ATOM     15  C21  11 d          -0.950 208.636 109.527  0.00  0.00     0.001 A 
ATOM     16  C22  11 d          -1.224 208.937 110.871  0.00  0.00     0.019 A 
ATOM     17  O5   11 d          -1.990 209.509 113.499  0.00  0.00    -0.267 OA
ENDROOT
BRANCH   5  18
ATOM     18  C11  11 d          -6.545 208.069 112.667  0.00  0.00     0.052 C 
ATOM     19  C12  11 d          -7.600 208.735 112.146  0.00  0.00     0.015 C 
BRANCH  19  20
ATOM     20  C13  11 d          -9.038 208.421 112.386  0.00  0.00    -0.036 A 
ATOM     21  C14  11 d          -9.644 208.422 113.661  0.00  0.00     0.014 A 
ATOM     22  C15  11 d         -10.995 208.074 113.811  0.00  0.00     0.037 A 
ATOM     23  C16  11 d         -11.784 207.712 112.696  0.00  0.00     0.102 A 
ATOM     24  C17  11 d         -11.176 207.726 111.421  0.00  0.00     0.037 A 
ATOM     25  C18  11 d          -9.826 208.075 111.271  0.00  0.00     0.014 A 
BRANCH  23  26
ATOM     26  N4   11 d         -13.130 207.356 112.840  0.00  0.00    -0.116 N 
ATOM     27  O3   11 d         -13.628 206.651 112.087  0.00  0.00    -0.532 OA
ATOM     28  O4   11 d         -13.866 207.946 113.678  0.00  0.00    -0.532 OA
ENDBRANCH  23  26
ENDBRANCH  19  20
ENDBRANCH   5  18
BRANCH  10  29
ATOM     29  N3   11 d          -5.639 210.276 118.481  0.00  0.00    -0.116 N 
ATOM     30  O1   11 d          -6.345 209.588 119.066  0.00  0.00    -0.532 OA
ATOM     31  O2   11 d          -5.414 211.427 118.946  0.00  0.00    -0.532 OA
ENDBRANCH  10  29
TORSDOF 4
ENDMDL
MODEL 8
REMARK VINA RESULT:      -8.4      3.848      9.273
REMARK  4 active torsions:
REMARK  status: ('A' for Active; 'I' for Inactive)
REMARK    1  A    between atoms: C4_5  and  C11_16 
REMARK    2  A    between atoms: C8_10  and  N3_11 
REMARK    3  A    between atoms: C12_17  and  C13_18 
REMARK    4  A    between atoms: C16_21  and  N4_22 
ROOT
ATOM      1  C1   11 d          -5.833 209.311 118.326  0.00  0.00     0.266 A 
ATOM      2  C2   11 d          -6.544 209.296 119.544  0.00  0.00     0.061 A 
ATOM      3  C3   11 d          -7.887 208.865 119.514  0.00  0.00     0.074 A 
ATOM      4  N1   11 d          -8.454 208.496 118.337  0.00  0.00    -0.230 NA
ATOM      5  C4   11 d          -7.772 208.531 117.160  0.00  0.00     0.138 A 
ATOM      6  N2   11 d          -6.440 208.913 117.152  0.00  0.00    -0.262 N 
ATOM      7  C5   11 d          -5.654 208.861 115.937  0.00  0.00     0.044 A 
ATOM      8  C6   11 d          -5.119 210.038 115.382  0.00  0.00     0.032 A 
ATOM      9  C7   11 d          -4.409 209.993 114.174  0.00  0.00     0.038 A 
ATOM     10  C8   11 d          -4.218 208.771 113.486  0.00  0.00     0.103 A 
ATOM     11  C9   11 d          -4.740 207.592 114.068  0.00  0.00     0.038 A 
ATOM     12  C10  11 d          -5.445 207.636 115.278  0.00  0.00     0.032 A 
ATOM     13  C19  11 d          -8.641 208.819 120.698  0.00  0.00     0.032 A 
ATOM     14  C20  11 d          -8.062 209.202 121.916  0.00  0.00     0.002 A 
ATOM     15  C21  11 d          -6.726 209.631 121.954  0.00  0.00     0.001 A 
ATOM     16  C22  11 d          -5.967 209.679 120.775  0.00  0.00     0.019 A 
ATOM     17  O5   11 d          -4.623 209.665 118.322  0.00  0.00    -0.267 OA
ENDROOT
BRANCH   5  18
ATOM     18  C11  11 d          -8.570 208.108 115.974  0.00  0.00     0.052 C 
ATOM     19  C12  11 d          -8.905 208.928 114.953  0.00  0.00     0.015 C 
BRANCH  19  20
ATOM     20  C13  11 d          -9.609 208.524 113.702  0.00  0.00    -0.036 A 
ATOM     21  C14  11 d          -9.212 208.923 112.408  0.00  0.00     0.014 A 
ATOM     22  C15  11 d          -9.952 208.535 111.281  0.00  0.00     0.037 A 
ATOM     23  C16  11 d         -11.114 207.739 111.409  0.00  0.00     0.102 A 
ATOM     24  C17  11 d         -11.499 207.331 112.705  0.00  0.00     0.037 A 
ATOM     25  C18  11 d         -10.758 207.718 113.831  0.00  0.00     0.014 A 
BRANCH  23  26
ATOM     26  N4   11 d         -11.860 207.356 110.289  0.00  0.00    -0.116 N 
ATOM     27  O3   11 d         -11.508 207.631 109.234  0.00  0.00    -0.532 OA
ATOM     28  O4   11 d         -13.020 206.874 110.421  0.00  0.00    -0.532 OA
ENDBRANCH  23  26
ENDBRANCH  19  20
ENDBRANCH   5  18
BRANCH  10  29
ATOM     29  N3   11 d          -3.530 208.721 112.269  0.00  0.00    -0.116 N 
ATOM     30  O1   11 d          -3.740 207.880 111.520  0.00  0.00    -0.532 OA
ATOM     31  O2   11 d          -2.520 209.451 112.072  0.00  0.00    -0.532 OA
ENDBRANCH  10  29
TORSDOF 4
ENDMDL
MODEL 9
REMARK VINA RESULT:      -8.3      3.335      7.603
REMARK  4 active torsions:
REMARK  status: ('A' for Active; 'I' for Inactive)
REMARK    1  A    between atoms: C4_5  and  C11_16 
REMARK    2  A    between atoms: C8_10  and  N3_11 
REMARK    3  A    between atoms: C12_17  and  C13_18 
REMARK    4  A    between atoms: C16_21  and  N4_22 
ROOT
ATOM      1  C1   11 d          -9.796 208.245 114.235  0.00  0.00     0.266 A 
ATOM      2  C2   11 d         -10.365 207.959 112.977  0.00  0.00     0.061 A 
ATOM      3  C3   11 d         -11.485 207.102 112.942  0.00  0.00     0.074 A 
ATOM      4  N1   11 d         -11.970 206.574 114.095  0.00  0.00    -0.230 NA
ATOM      5  C4   11 d         -11.407 206.835 115.306  0.00  0.00     0.138 A 
ATOM      6  N2   11 d         -10.329 207.702 115.387  0.00  0.00    -0.262 N 
ATOM      7  C5   11 d          -9.772 208.086 116.668  0.00  0.00     0.044 A 
ATOM      8  C6   11 d          -8.446 207.750 116.998  0.00  0.00     0.032 A 
ATOM      9  C7   11 d          -7.927 208.071 118.261  0.00  0.00     0.038 A 
ATOM     10  C8   11 d          -8.722 208.731 119.229  0.00  0.00     0.103 A 
ATOM     11  C9   11 d         -10.045 209.084 118.874  0.00  0.00     0.038 A 
ATOM     12  C10  11 d         -10.562 208.768 117.610  0.00  0.00     0.032 A 
ATOM     13  C19  11 d         -12.099 206.790 111.718  0.00  0.00     0.032 A 
ATOM     14  C20  11 d         -11.601 207.330 110.523  0.00  0.00     0.002 A 
ATOM     15  C21  11 d         -10.487 208.184 110.549  0.00  0.00     0.001 A 
ATOM     16  C22  11 d          -9.869 208.500 111.769  0.00  0.00     0.019 A 
ATOM     17  O5   11 d          -8.811 209.029 114.304  0.00  0.00    -0.267 OA
ENDROOT
BRANCH   5  18
ATOM     18  C11  11 d         -12.068 206.149 116.452  0.00  0.00     0.052 C 
ATOM     19  C12  11 d         -13.263 206.514 116.968  0.00  0.00     0.015 C 
BRANCH  19  20
ATOM     20  C13  11 d         -14.007 205.796 118.043  0.00  0.00    -0.036 A 
ATOM     21  C14  11 d         -14.238 206.324 119.331  0.00  0.00     0.014 A 
ATOM     22  C15  11 d         -14.912 205.570 120.304  0.00  0.00     0.037 A 
ATOM     23  C16  11 d         -15.375 204.264 120.023  0.00  0.00     0.102 A 
ATOM     24  C17  11 d         -15.153 203.745 118.728  0.00  0.00     0.037 A 
ATOM     25  C18  11 d         -14.480 204.500 117.756  0.00  0.00     0.014 A 
BRANCH  23  26
ATOM     26  N4   11 d         -16.040 203.503 120.992  0.00  0.00    -0.116 N 
ATOM     27  O3   11 d         -17.148 203.689 121.215  0.00  0.00    -0.532 OA
ATOM     28  O4   11 d         -15.399 202.741 121.766  0.00  0.00    -0.532 OA
ENDBRANCH  23  26
ENDBRANCH  19  20
ENDBRANCH   5  18
BRANCH  10  29
ATOM     29  N3   11 d          -8.219 209.034 120.498  0.00  0.00    -0.116 N 
ATOM     30  O1   11 d          -8.935 209.261 121.365  0.00  0.00    -0.532 OA
ATOM     31  O2   11 d          -6.994 209.285 120.661  0.00  0.00    -0.532 OA
ENDBRANCH  10  29
TORSDOF 4
ENDMDL
MODEL 10
REMARK VINA RESULT:      -8.3      5.366      9.577
REMARK  4 active torsions:
REMARK  status: ('A' for Active; 'I' for Inactive)
REMARK    1  A    between atoms: C4_5  and  C11_16 
REMARK    2  A    between atoms: C8_10  and  N3_11 
REMARK    3  A    between atoms: C12_17  and  C13_18 
REMARK    4  A    between atoms: C16_21  and  N4_22 
ROOT
ATOM      1  C1   11 d         -14.148 204.194 122.747  0.00  0.00     0.266 A 
ATOM      2  C2   11 d         -12.774 204.298 123.052  0.00  0.00     0.061 A 
ATOM      3  C3   11 d         -11.942 204.947 122.116  0.00  0.00     0.074 A 
ATOM      4  N1   11 d         -12.469 205.433 120.964  0.00  0.00    -0.230 NA
ATOM      5  C4   11 d         -13.790 205.313 120.662  0.00  0.00     0.138 A 
ATOM      6  N2   11 d         -14.648 204.716 121.572  0.00  0.00    -0.262 N 
ATOM      7  C5   11 d         -16.076 204.666 121.332  0.00  0.00     0.044 A 
ATOM      8  C6   11 d         -16.731 203.430 121.183  0.00  0.00     0.032 A 
ATOM      9  C7   11 d         -18.102 203.385 120.893  0.00  0.00     0.038 A 
ATOM     10  C8   11 d         -18.854 204.574 120.738  0.00  0.00     0.103 A 
ATOM     11  C9   11 d         -18.187 205.810 120.914  0.00  0.00     0.038 A 
ATOM     12  C10  11 d         -16.818 205.854 121.210  0.00  0.00     0.032 A 
ATOM     13  C19  11 d         -10.568 205.089 122.372  0.00  0.00     0.032 A 
ATOM     14  C20  11 d         -10.018 204.586 123.560  0.00  0.00     0.002 A 
ATOM     15  C21  11 d         -10.839 203.940 124.496  0.00  0.00     0.001 A 
ATOM     16  C22  11 d         -12.213 203.794 124.247  0.00  0.00     0.019 A 
ATOM     17  O5   11 d         -14.924 203.644 123.575  0.00  0.00    -0.267 OA
ENDROOT
BRANCH   5  18
ATOM     18  C11  11 d         -14.175 205.892 119.343  0.00  0.00     0.052 C 
ATOM     19  C12  11 d         -13.593 205.559 118.170  0.00  0.00     0.015 C 
BRANCH  19  20
ATOM     20  C13  11 d         -14.013 206.033 116.820  0.00  0.00    -0.036 A 
ATOM     21  C14  11 d         -13.755 207.329 116.323  0.00  0.00     0.014 A 
ATOM     22  C15  11 d         -14.219 207.715 115.056  0.00  0.00     0.037 A 
ATOM     23  C16  11 d         -14.958 206.823 114.246  0.00  0.00     0.102 A 
ATOM     24  C17  11 d         -15.201 205.523 114.743  0.00  0.00     0.037 A 
ATOM     25  C18  11 d         -14.735 205.136 116.008  0.00  0.00     0.014 A 
BRANCH  23  26
ATOM     26  N4   11 d         -15.431 207.205 112.986  0.00  0.00    -0.116 N 
ATOM     27  O3   11 d         -16.487 206.916 112.650  0.00  0.00    -0.532 OA
ATOM     28  O4   11 d         -14.650 207.700 112.127  0.00  0.00    -0.532 OA
ENDBRANCH  23  26
ENDBRANCH  19  20
ENDBRANCH   5  18
BRANCH  10  29
ATOM     29  N3   11 d         -20.216 204.538 120.426  0.00  0.00    -0.116 N 
ATOM     30  O1   11 d         -20.759 205.491 120.093  0.00  0.00    -0.532 OA
ATOM     31  O2   11 d         -20.916 203.530 120.719  0.00  0.00    -0.532 OA
ENDBRANCH  10  29
TORSDOF 4
ENDMDL
MODEL 11
REMARK VINA RESULT:      -8.2      3.429      6.400
REMARK  4 active torsions:
REMARK  status: ('A' for Active; 'I' for Inactive)
REMARK    1  A    between atoms: C4_5  and  C11_16 
REMARK    2  A    between atoms: C8_10  and  N3_11 
REMARK    3  A    between atoms: C12_17  and  C13_18 
REMARK    4  A    between atoms: C16_21  and  N4_22 
ROOT
ATOM      1  C1   11 d         -13.752 205.266 117.408  0.00  0.00     0.266 A 
ATOM      2  C2   11 d         -14.232 204.891 118.680  0.00  0.00     0.061 A 
ATOM      3  C3   11 d         -13.602 205.451 119.811  0.00  0.00     0.074 A 
ATOM      4  N1   11 d         -12.562 206.310 119.651  0.00  0.00    -0.230 NA
ATOM      5  C4   11 d         -12.087 206.654 118.424  0.00  0.00     0.138 A 
ATOM      6  N2   11 d         -12.703 206.156 117.287  0.00  0.00    -0.262 N 
ATOM      7  C5   11 d         -12.293 206.584 115.965  0.00  0.00     0.044 A 
ATOM      8  C6   11 d         -11.752 205.660 115.052  0.00  0.00     0.032 A 
ATOM      9  C7   11 d         -11.301 206.087 113.795  0.00  0.00     0.038 A 
ATOM     10  C8   11 d         -11.375 207.449 113.418  0.00  0.00     0.103 A 
ATOM     11  C9   11 d         -11.944 208.363 114.337  0.00  0.00     0.038 A 
ATOM     12  C10  11 d         -12.400 207.935 115.592  0.00  0.00     0.032 A 
ATOM     13  C19  11 d         -14.044 205.121 121.102  0.00  0.00     0.032 A 
ATOM     14  C20  11 d         -15.116 204.232 121.273  0.00  0.00     0.002 A 
ATOM     15  C21  11 d         -15.748 203.672 120.153  0.00  0.00     0.001 A 
ATOM     16  C22  11 d         -15.311 203.997 118.859  0.00  0.00     0.019 A 
ATOM     17  O5   11 d         -14.310 204.805 116.376  0.00  0.00    -0.267 OA
ENDROOT
BRANCH   5  18
ATOM     18  C11  11 d         -10.929 207.593 118.454  0.00  0.00     0.052 C 
ATOM     19  C12  11 d          -9.694 207.260 118.892  0.00  0.00     0.015 C 
BRANCH  19  20
ATOM     20  C13  11 d          -8.486 208.132 118.843  0.00  0.00    -0.036 A 
ATOM     21  C14  11 d          -7.547 208.122 117.790  0.00  0.00     0.014 A 
ATOM     22  C15  11 d          -6.410 208.944 117.836  0.00  0.00     0.037 A 
ATOM     23  C16  11 d          -6.173 209.800 118.935  0.00  0.00     0.102 A 
ATOM     24  C17  11 d          -7.123 209.816 119.981  0.00  0.00     0.037 A 
ATOM     25  C18  11 d          -8.259 208.995 119.933  0.00  0.00     0.014 A 
BRANCH  23  26
ATOM     26  N4   11 d          -5.037 210.616 118.991  0.00  0.00    -0.116 N 
ATOM     27  O3   11 d          -5.076 211.629 119.524  0.00  0.00    -0.532 OA
ATOM     28  O4   11 d          -4.015 210.347 118.300  0.00  0.00    -0.532 OA
ENDBRANCH  23  26
ENDBRANCH  19  20
ENDBRANCH   5  18
BRANCH  10  29
ATOM     29  N3   11 d         -10.907 207.887 112.175  0.00  0.00    -0.116 N 
ATOM     30  O1   11 d         -11.284 207.398 111.210  0.00  0.00    -0.532 OA
ATOM     31  O2   11 d          -9.910 208.656 112.100  0.00  0.00    -0.532 OA
ENDBRANCH  10  29
TORSDOF 4
ENDMDL
MODEL 12
REMARK VINA RESULT:      -8.2      3.343      7.593
REMARK  4 active torsions:
REMARK  status: ('A' for Active; 'I' for Inactive)
REMARK    1  A    between atoms: C4_5  and  C11_16 
REMARK    2  A    between atoms: C8_10  and  N3_11 
REMARK    3  A    between atoms: C12_17  and  C13_18 
REMARK    4  A    between atoms: C16_21  and  N4_22 
ROOT
ATOM      1  C1   11 d         -13.352 207.334 114.025  0.00  0.00     0.266 A 
ATOM      2  C2   11 d         -14.420 206.981 113.173  0.00  0.00     0.061 A 
ATOM      3  C3   11 d         -15.355 206.038 113.649  0.00  0.00     0.074 A 
ATOM      4  N1   11 d         -15.201 205.495 114.883  0.00  0.00    -0.230 NA
ATOM      5  C4   11 d         -14.160 205.821 115.695  0.00  0.00     0.138 A 
ATOM      6  N2   11 d         -13.240 206.771 115.280  0.00  0.00    -0.262 N 
ATOM      7  C5   11 d         -12.180 207.221 116.160  0.00  0.00     0.044 A 
ATOM      8  C6   11 d         -10.833 206.997 115.825  0.00  0.00     0.032 A 
ATOM      9  C7   11 d          -9.810 207.380 116.705  0.00  0.00     0.038 A 
ATOM     10  C8   11 d         -10.108 207.993 117.945  0.00  0.00     0.103 A 
ATOM     11  C9   11 d         -11.467 208.234 118.258  0.00  0.00     0.038 A 
ATOM     12  C10  11 d         -12.489 207.856 117.376  0.00  0.00     0.032 A 
ATOM     13  C19  11 d         -16.444 205.657 112.847  0.00  0.00     0.032 A 
ATOM     14  C20  11 d         -16.606 206.213 111.570  0.00  0.00     0.002 A 
ATOM     15  C21  11 d         -15.681 207.152 111.090  0.00  0.00     0.001 A 
ATOM     16  C22  11 d         -14.590 207.538 111.885  0.00  0.00     0.019 A 
ATOM     17  O5   11 d         -12.514 208.194 113.641  0.00  0.00    -0.267 OA
ENDROOT
BRANCH   5  18
ATOM     18  C11  11 d         -14.152 205.106 117.003  0.00  0.00     0.052 C 
ATOM     19  C12  11 d         -14.496 205.674 118.180  0.00  0.00     0.015 C 
BRANCH  19  20
ATOM     20  C13  11 d         -14.601 204.972 119.491  0.00  0.00    -0.036 A 
ATOM     21  C14  11 d         -15.577 203.996 119.788  0.00  0.00     0.014 A 
ATOM     22  C15  11 d         -15.638 203.409 121.061  0.00  0.00     0.037 A 
ATOM     23  C16  11 d         -14.730 203.778 122.080  0.00  0.00     0.102 A 
ATOM     24  C17  11 d         -13.747 204.744 121.773  0.00  0.00     0.037 A 
ATOM     25  C18  11 d         -13.685 205.330 120.500  0.00  0.00     0.014 A 
BRANCH  23  26
ATOM     26  N4   11 d         -14.791 203.202 123.353  0.00  0.00    -0.116 N 
ATOM     27  O3   11 d         -14.185 202.259 123.594  0.00  0.00    -0.532 OA
ATOM     28  O4   11 d         -15.649 203.586 124.195  0.00  0.00    -0.532 OA
ENDBRANCH  23  26
ENDBRANCH  19  20
ENDBRANCH   5  18
BRANCH  10  29
ATOM     29  N3   11 d          -9.096 208.358 118.839  0.00  0.00    -0.116 N 
ATOM     30  O1   11 d          -7.996 208.181 118.570  0.00  0.00    -0.532 OA
ATOM     31  O2   11 d          -9.372 208.669 120.029  0.00  0.00    -0.532 OA
ENDBRANCH  10  29
TORSDOF 4
ENDMDL
