MODEL 1
REMARK VINA RESULT:      -8.1      0.000      0.000
REMARK  4 active torsions:
REMARK  status: ('A' for Active; 'I' for Inactive)
REMARK    1  A    between atoms: C1_1  and  C7_9 
REMARK    2  A    between atoms: C2_2  and  O1_8 
REMARK    3  A    between atoms: N1_10  and  C8_11 
REMARK    4  A    between atoms: C8_11  and  C9_12 
ROOT
ATOM      1  C7   11 d         -12.150 206.149 114.196  0.00  0.00     0.125 C 
ATOM      2  N1   11 d         -13.236 206.358 114.924  0.00  0.00    -0.291 NA
ENDROOT
BRANCH   1   3
ATOM      3  C1   11 d         -11.565 206.745 112.923  0.00  0.00     0.015 A 
ATOM      4  C2   11 d         -11.905 206.541 111.548  0.00  0.00     0.077 A 
ATOM      5  C3   11 d         -11.253 207.270 110.536  0.00  0.00     0.039 A 
ATOM      6  C4   11 d         -10.228 208.167 110.838  0.00  0.00     0.022 A 
ATOM      7  C5   11 d          -9.850 208.358 112.167  0.00  0.00     0.011 A 
ATOM      8 Br1   11 d          -8.432 209.593 112.594  0.00  0.00    -0.051 Br
ATOM      9  C6   11 d         -10.509 207.661 113.188  0.00  0.00     0.034 A 
BRANCH   4  10
ATOM     10  O1   11 d         -12.928 205.684 111.102  0.00  0.00    -0.360 OA
ATOM     11  H4   11 d         -13.223 205.141 111.934  0.00  0.00     0.217 HD
ENDBRANCH   4  10
ENDBRANCH   1   3
BRANCH   2  12
ATOM     12  C8   11 d         -14.396 207.244 114.723  0.00  0.00     0.136 C 
ATOM     13  C15  11 d         -13.974 208.709 114.969  0.00  0.00     0.039 C 
BRANCH  12  14
ATOM     14  C9   11 d         -15.213 206.961 113.462  0.00  0.00    -0.034 A 
ATOM     15  C10  11 d         -15.011 207.767 112.319  0.00  0.00     0.009 A 
ATOM     16  C11  11 d         -15.742 207.549 111.143  0.00  0.00     0.001 A 
ATOM     17  C12  11 d         -16.704 206.532 111.093  0.00  0.00     0.000 A 
ATOM     18  C13  11 d         -16.941 205.740 112.222  0.00  0.00     0.001 A 
ATOM     19  C14  11 d         -16.209 205.955 113.400  0.00  0.00     0.009 A 
ENDBRANCH  12  14
ENDBRANCH   2  12
TORSDOF 4
ENDMDL
MODEL 2
REMARK VINA RESULT:      -8.1      2.217      2.594
REMARK  4 active torsions:
REMARK  status: ('A' for Active; 'I' for Inactive)
REMARK    1  A    between atoms: C1_1  and  C7_9 
REMARK    2  A    between atoms: C2_2  and  O1_8 
REMARK    3  A    between atoms: N1_10  and  C8_11 
REMARK    4  A    between atoms: C8_11  and  C9_12 
ROOT
ATOM      1  C7   11 d         -11.713 206.918 115.189  0.00  0.00     0.125 C 
ATOM      2  N1   11 d         -13.008 206.772 115.423  0.00  0.00    -0.291 NA
ENDROOT
BRANCH   1   3
ATOM      3  C1   11 d         -10.870 207.738 114.221  0.00  0.00     0.015 A 
ATOM      4  C2   11 d          -9.841 208.704 114.458  0.00  0.00     0.077 A 
ATOM      5  C3   11 d          -9.149 209.288 113.381  0.00  0.00     0.039 A 
ATOM      6  C4   11 d          -9.481 208.984 112.060  0.00  0.00     0.022 A 
ATOM      7  C5   11 d         -10.505 208.075 111.799  0.00  0.00     0.011 A 
ATOM      8 Br1   11 d         -10.973 207.650 109.978  0.00  0.00    -0.051 Br
ATOM      9  C6   11 d         -11.183 207.462 112.861  0.00  0.00     0.034 A 
BRANCH   4  10
ATOM     10  O1   11 d          -9.392 209.089 115.735  0.00  0.00    -0.360 OA
ATOM     11  H4   11 d          -9.083 210.073 115.640  0.00  0.00     0.217 HD
ENDBRANCH   4  10
ENDBRANCH   1   3
BRANCH   2  12
ATOM     12  C8   11 d         -14.195 207.318 114.743  0.00  0.00     0.136 C 
ATOM     13  C15  11 d         -14.229 208.852 114.921  0.00  0.00     0.039 C 
BRANCH  12  14
ATOM     14  C9   11 d         -14.438 206.779 113.334  0.00  0.00    -0.034 A 
ATOM     15  C10  11 d         -14.764 207.686 112.300  0.00  0.00     0.009 A 
ATOM     16  C11  11 d         -15.001 207.236 110.993  0.00  0.00     0.001 A 
ATOM     17  C12  11 d         -14.936 205.869 110.699  0.00  0.00     0.000 A 
ATOM     18  C13  11 d         -14.642 204.950 111.713  0.00  0.00     0.001 A 
ATOM     19  C14  11 d         -14.402 205.398 113.021  0.00  0.00     0.009 A 
ENDBRANCH  12  14
ENDBRANCH   2  12
TORSDOF 4
ENDMDL
MODEL 3
REMARK VINA RESULT:      -7.8      1.933      3.311
REMARK  4 active torsions:
REMARK  status: ('A' for Active; 'I' for Inactive)
REMARK    1  A    between atoms: C1_1  and  C7_9 
REMARK    2  A    between atoms: C2_2  and  O1_8 
REMARK    3  A    between atoms: N1_10  and  C8_11 
REMARK    4  A    between atoms: C8_11  and  C9_12 
ROOT
ATOM      1  C7   11 d         -12.199 206.454 111.279  0.00  0.00     0.125 C 
ATOM      2  N1   11 d         -13.516 206.321 111.329  0.00  0.00    -0.291 NA
ENDROOT
BRANCH   1   3
ATOM      3  C1   11 d         -11.180 207.399 111.903  0.00  0.00     0.015 A 
ATOM      4  C2   11 d         -10.242 208.297 111.303  0.00  0.00     0.077 A 
ATOM      5  C3   11 d          -9.438 209.129 112.104  0.00  0.00     0.039 A 
ATOM      6  C4   11 d          -9.495 209.064 113.497  0.00  0.00     0.022 A 
ATOM      7  C5   11 d         -10.372 208.170 114.109  0.00  0.00     0.011 A 
ATOM      8 Br1   11 d         -10.455 208.070 116.033  0.00  0.00    -0.051 Br
ATOM      9  C6   11 d         -11.200 207.356 113.325  0.00  0.00     0.034 A 
BRANCH   4  10
ATOM     10  O1   11 d         -10.093 208.480 109.916  0.00  0.00    -0.360 OA
ATOM     11  H4   11 d         -10.885 209.081 109.624  0.00  0.00     0.217 HD
ENDBRANCH   4  10
ENDBRANCH   1   3
BRANCH   2  12
ATOM     12  C8   11 d         -14.560 207.129 111.981  0.00  0.00     0.136 C 
ATOM     13  C15  11 d         -15.925 206.835 111.321  0.00  0.00     0.039 C 
BRANCH  12  14
ATOM     14  C9   11 d         -14.515 207.131 113.508  0.00  0.00    -0.034 A 
ATOM     15  C10  11 d         -14.405 208.365 114.189  0.00  0.00     0.009 A 
ATOM     16  C11  11 d         -14.353 208.415 115.590  0.00  0.00     0.001 A 
ATOM     17  C12  11 d         -14.391 207.231 116.336  0.00  0.00     0.000 A 
ATOM     18  C13  11 d         -14.471 205.996 115.682  0.00  0.00     0.001 A 
ATOM     19  C14  11 d         -14.526 205.943 114.280  0.00  0.00     0.009 A 
ENDBRANCH  12  14
ENDBRANCH   2  12
TORSDOF 4
ENDMDL
MODEL 4
REMARK VINA RESULT:      -7.7      3.025      5.988
REMARK  4 active torsions:
REMARK  status: ('A' for Active; 'I' for Inactive)
REMARK    1  A    between atoms: C1_1  and  C7_9 
REMARK    2  A    between atoms: C2_2  and  O1_8 
REMARK    3  A    between atoms: N1_10  and  C8_11 
REMARK    4  A    between atoms: C8_11  and  C9_12 
ROOT
ATOM      1  C7   11 d         -11.984 206.057 113.195  0.00  0.00     0.125 C 
ATOM      2  N1   11 d         -11.155 206.736 113.971  0.00  0.00    -0.291 NA
ENDROOT
BRANCH   1   3
ATOM      3  C1   11 d         -12.951 206.406 112.070  0.00  0.00     0.015 A 
ATOM      4  C2   11 d         -12.717 206.940 110.763  0.00  0.00     0.077 A 
ATOM      5  C3   11 d         -13.785 207.117 109.864  0.00  0.00     0.039 A 
ATOM      6  C4   11 d         -15.098 206.829 110.237  0.00  0.00     0.022 A 
ATOM      7  C5   11 d         -15.360 206.345 111.518  0.00  0.00     0.011 A 
ATOM      8 Br1   11 d         -17.172 205.948 112.044  0.00  0.00    -0.051 Br
ATOM      9  C6   11 d         -14.304 206.135 112.415  0.00  0.00     0.034 A 
BRANCH   4  10
ATOM     10  O1   11 d         -11.445 207.254 110.250  0.00  0.00    -0.360 OA
ATOM     11  H4   11 d         -10.848 207.446 111.075  0.00  0.00     0.217 HD
ENDBRANCH   4  10
ENDBRANCH   1   3
BRANCH   2  12
ATOM     12  C8   11 d         -10.895 208.181 114.104  0.00  0.00     0.136 C 
ATOM     13  C15  11 d         -11.503 208.693 115.427  0.00  0.00     0.039 C 
BRANCH  12  14
ATOM     14  C9   11 d          -9.463 208.610 113.787  0.00  0.00    -0.034 A 
ATOM     15  C10  11 d          -8.907 208.269 112.533  0.00  0.00     0.009 A 
ATOM     16  C11  11 d          -7.595 208.636 112.201  0.00  0.00     0.001 A 
ATOM     17  C12  11 d          -6.807 209.335 113.123  0.00  0.00     0.000 A 
ATOM     18  C13  11 d          -7.327 209.659 114.382  0.00  0.00     0.001 A 
ATOM     19  C14  11 d          -8.642 209.295 114.716  0.00  0.00     0.009 A 
ENDBRANCH  12  14
ENDBRANCH   2  12
TORSDOF 4
ENDMDL
MODEL 5
REMARK VINA RESULT:      -7.7      3.331      5.807
REMARK  4 active torsions:
REMARK  status: ('A' for Active; 'I' for Inactive)
REMARK    1  A    between atoms: C1_1  and  C7_9 
REMARK    2  A    between atoms: C2_2  and  O1_8 
REMARK    3  A    between atoms: N1_10  and  C8_11 
REMARK    4  A    between atoms: C8_11  and  C9_12 
ROOT
ATOM      1  C7   11 d         -15.263 207.039 113.831  0.00  0.00     0.125 C 
ATOM      2  N1   11 d         -14.905 206.784 112.582  0.00  0.00    -0.291 NA
ENDROOT
BRANCH   1   3
ATOM      3  C1   11 d         -14.681 206.749 115.208  0.00  0.00     0.015 A 
ATOM      4  C2   11 d         -13.977 207.590 116.126  0.00  0.00     0.077 A 
ATOM      5  C3   11 d         -13.590 207.103 117.389  0.00  0.00     0.039 A 
ATOM      6  C4   11 d         -13.835 205.779 117.757  0.00  0.00     0.022 A 
ATOM      7  C5   11 d         -14.485 204.925 116.867  0.00  0.00     0.011 A 
ATOM      8 Br1   11 d         -14.825 203.094 117.365  0.00  0.00    -0.051 Br
ATOM      9  C6   11 d         -14.902 205.404 115.618  0.00  0.00     0.034 A 
BRANCH   4  10
ATOM     10  O1   11 d         -13.682 208.946 115.894  0.00  0.00    -0.360 OA
ATOM     11  H4   11 d         -13.460 209.017 114.885  0.00  0.00     0.217 HD
ENDBRANCH   4  10
ENDBRANCH   1   3
BRANCH   2  12
ATOM     12  C8   11 d         -13.784 206.010 112.021  0.00  0.00     0.136 C 
ATOM     13  C15  11 d         -14.289 205.161 110.833  0.00  0.00     0.039 C 
BRANCH  12  14
ATOM     14  C9   11 d         -12.495 206.803 111.808  0.00  0.00    -0.034 A 
ATOM     15  C10  11 d         -12.048 207.042 110.489  0.00  0.00     0.009 A 
ATOM     16  C11  11 d         -10.868 207.758 110.245  0.00  0.00     0.001 A 
ATOM     17  C12  11 d         -10.101 208.233 111.316  0.00  0.00     0.000 A 
ATOM     18  C13  11 d         -10.510 207.984 112.632  0.00  0.00     0.001 A 
ATOM     19  C14  11 d         -11.693 207.269 112.878  0.00  0.00     0.009 A 
ENDBRANCH  12  14
ENDBRANCH   2  12
TORSDOF 4
ENDMDL
MODEL 6
REMARK VINA RESULT:      -7.5      2.333      5.421
REMARK  4 active torsions:
REMARK  status: ('A' for Active; 'I' for Inactive)
REMARK    1  A    between atoms: C1_1  and  C7_9 
REMARK    2  A    between atoms: C2_2  and  O1_8 
REMARK    3  A    between atoms: N1_10  and  C8_11 
REMARK    4  A    between atoms: C8_11  and  C9_12 
ROOT
ATOM      1  C7   11 d         -14.087 208.043 114.693  0.00  0.00     0.125 C 
ATOM      2  N1   11 d         -12.879 208.084 115.234  0.00  0.00    -0.291 NA
ENDROOT
BRANCH   1   3
ATOM      3  C1   11 d         -14.769 207.201 113.623  0.00  0.00     0.015 A 
ATOM      4  C2   11 d         -15.678 206.102 113.731  0.00  0.00     0.077 A 
ATOM      5  C3   11 d         -16.235 205.520 112.577  0.00  0.00     0.039 A 
ATOM      6  C4   11 d         -15.878 205.961 111.302  0.00  0.00     0.022 A 
ATOM      7  C5   11 d         -14.964 207.006 111.166  0.00  0.00     0.011 A 
ATOM      8 Br1   11 d         -14.462 207.620 109.409  0.00  0.00    -0.051 Br
ATOM      9  C6   11 d         -14.424 207.615 112.306  0.00  0.00     0.034 A 
BRANCH   4  10
ATOM     10  O1   11 d         -16.139 205.569 114.950  0.00  0.00    -0.360 OA
ATOM     11  H4   11 d         -15.469 205.895 115.670  0.00  0.00     0.217 HD
ENDBRANCH   4  10
ENDBRANCH   1   3
BRANCH   2  12
ATOM     12  C8   11 d         -11.643 207.340 114.933  0.00  0.00     0.136 C 
ATOM     13  C15  11 d         -11.992 205.870 114.614  0.00  0.00     0.039 C 
BRANCH  12  14
ATOM     14  C9   11 d         -10.681 208.046 113.979  0.00  0.00    -0.034 A 
ATOM     15  C10  11 d          -9.724 208.941 114.509  0.00  0.00     0.009 A 
ATOM     16  C11  11 d          -8.825 209.617 113.671  0.00  0.00     0.001 A 
ATOM     17  C12  11 d          -8.879 209.426 112.285  0.00  0.00     0.000 A 
ATOM     18  C13  11 d          -9.837 208.566 111.735  0.00  0.00     0.001 A 
ATOM     19  C14  11 d         -10.737 207.886 112.572  0.00  0.00     0.009 A 
ENDBRANCH  12  14
ENDBRANCH   2  12
TORSDOF 4
ENDMDL
MODEL 7
REMARK VINA RESULT:      -7.4      2.709      5.211
REMARK  4 active torsions:
REMARK  status: ('A' for Active; 'I' for Inactive)
REMARK    1  A    between atoms: C1_1  and  C7_9 
REMARK    2  A    between atoms: C2_2  and  O1_8 
REMARK    3  A    between atoms: N1_10  and  C8_11 
REMARK    4  A    between atoms: C8_11  and  C9_12 
ROOT
ATOM      1  C7   11 d         -14.737 207.198 114.448  0.00  0.00     0.125 C 
ATOM      2  N1   11 d         -14.598 207.047 113.140  0.00  0.00    -0.291 NA
ENDROOT
BRANCH   1   3
ATOM      3  C1   11 d         -14.032 206.656 115.685  0.00  0.00     0.015 A 
ATOM      4  C2   11 d         -14.297 205.499 116.485  0.00  0.00     0.077 A 
ATOM      5  C3   11 d         -13.449 205.165 117.558  0.00  0.00     0.039 A 
ATOM      6  C4   11 d         -12.365 205.974 117.900  0.00  0.00     0.022 A 
ATOM      7  C5   11 d         -12.106 207.128 117.161  0.00  0.00     0.011 A 
ATOM      8 Br1   11 d         -10.613 208.254 117.629  0.00  0.00    -0.051 Br
ATOM      9  C6   11 d         -12.923 207.459 116.073  0.00  0.00     0.034 A 
BRANCH   4  10
ATOM     10  O1   11 d         -15.340 204.587 116.242  0.00  0.00    -0.360 OA
ATOM     11  H4   11 d         -15.644 204.761 115.267  0.00  0.00     0.217 HD
ENDBRANCH   4  10
ENDBRANCH   1   3
BRANCH   2  12
ATOM     12  C8   11 d         -13.709 206.187 112.341  0.00  0.00     0.136 C 
ATOM     13  C15  11 d         -14.548 205.384 111.322  0.00  0.00     0.039 C 
BRANCH  12  14
ATOM     14  C9   11 d         -12.450 206.874 111.813  0.00  0.00    -0.034 A 
ATOM     15  C10  11 d         -11.523 207.409 112.737  0.00  0.00     0.009 A 
ATOM     16  C11  11 d         -10.358 208.054 112.299  0.00  0.00     0.001 A 
ATOM     17  C12  11 d         -10.106 208.194 110.929  0.00  0.00     0.000 A 
ATOM     18  C13  11 d         -11.023 207.697 109.996  0.00  0.00     0.001 A 
ATOM     19  C14  11 d         -12.190 207.049 110.432  0.00  0.00     0.009 A 
ENDBRANCH  12  14
ENDBRANCH   2  12
TORSDOF 4
ENDMDL
MODEL 8
REMARK VINA RESULT:      -7.2      2.474      3.246
REMARK  4 active torsions:
REMARK  status: ('A' for Active; 'I' for Inactive)
REMARK    1  A    between atoms: C1_1  and  C7_9 
REMARK    2  A    between atoms: C2_2  and  O1_8 
REMARK    3  A    between atoms: N1_10  and  C8_11 
REMARK    4  A    between atoms: C8_11  and  C9_12 
ROOT
ATOM      1  C7   11 d         -10.751 208.861 114.180  0.00  0.00     0.125 C 
ATOM      2  N1   11 d         -11.760 208.003 114.175  0.00  0.00    -0.291 NA
ENDROOT
BRANCH   1   3
ATOM      3  C1   11 d          -9.314 208.850 113.674  0.00  0.00     0.015 A 
ATOM      4  C2   11 d          -8.781 208.622 112.366  0.00  0.00     0.077 A 
ATOM      5  C3   11 d          -7.398 208.733 112.130  0.00  0.00     0.039 A 
ATOM      6  C4   11 d          -6.509 209.013 113.168  0.00  0.00     0.022 A 
ATOM      7  C5   11 d          -6.996 209.201 114.460  0.00  0.00     0.011 A 
ATOM      8 Br1   11 d          -5.775 209.585 115.902  0.00  0.00    -0.051 Br
ATOM      9  C6   11 d          -8.373 209.124 114.706  0.00  0.00     0.034 A 
BRANCH   4  10
ATOM     10  O1   11 d          -9.562 208.352 111.227  0.00  0.00    -0.360 OA
ATOM     11  H4   11 d         -10.220 209.147 111.141  0.00  0.00     0.217 HD
ENDBRANCH   4  10
ENDBRANCH   1   3
BRANCH   2  12
ATOM     12  C8   11 d         -11.856 206.604 113.722  0.00  0.00     0.136 C 
ATOM     13  C15  11 d         -11.795 205.663 114.944  0.00  0.00     0.039 C 
BRANCH  12  14
ATOM     14  C9   11 d         -12.954 206.334 112.693  0.00  0.00    -0.034 A 
ATOM     15  C10  11 d         -12.841 206.907 111.406  0.00  0.00     0.009 A 
ATOM     16  C11  11 d         -13.827 206.692 110.432  0.00  0.00     0.001 A 
ATOM     17  C12  11 d         -14.953 205.917 110.732  0.00  0.00     0.000 A 
ATOM     18  C13  11 d         -15.099 205.363 112.009  0.00  0.00     0.001 A 
ATOM     19  C14  11 d         -14.113 205.575 112.986  0.00  0.00     0.009 A 
ENDBRANCH  12  14
ENDBRANCH   2  12
TORSDOF 4
ENDMDL
MODEL 9
REMARK VINA RESULT:      -6.9      3.007      4.571
REMARK  4 active torsions:
REMARK  status: ('A' for Active; 'I' for Inactive)
REMARK    1  A    between atoms: C1_1  and  C7_9 
REMARK    2  A    between atoms: C2_2  and  O1_8 
REMARK    3  A    between atoms: N1_10  and  C8_11 
REMARK    4  A    between atoms: C8_11  and  C9_12 
ROOT
ATOM      1  C7   11 d         -11.647 206.215 112.024  0.00  0.00     0.125 C 
ATOM      2  N1   11 d         -11.238 206.406 113.269  0.00  0.00    -0.291 NA
ENDROOT
BRANCH   1   3
ATOM      3  C1   11 d         -12.872 206.615 111.211  0.00  0.00     0.015 A 
ATOM      4  C2   11 d         -12.986 207.319 109.970  0.00  0.00     0.077 A 
ATOM      5  C3   11 d         -14.246 207.513 109.373  0.00  0.00     0.039 A 
ATOM      6  C4   11 d         -15.415 207.073 109.996  0.00  0.00     0.022 A 
ATOM      7  C5   11 d         -15.336 206.418 111.224  0.00  0.00     0.011 A 
ATOM      8 Br1   11 d         -16.946 205.810 112.093  0.00  0.00    -0.051 Br
ATOM      9  C6   11 d         -14.087 206.191 111.817  0.00  0.00     0.034 A 
BRANCH   4  10
ATOM     10  O1   11 d         -11.893 207.799 109.226  0.00  0.00    -0.360 OA
ATOM     11  H4   11 d         -12.148 207.664 108.231  0.00  0.00     0.217 HD
ENDBRANCH   4  10
ENDBRANCH   1   3
BRANCH   2  12
ATOM     12  C8   11 d         -11.885 207.046 114.427  0.00  0.00     0.136 C 
ATOM     13  C15  11 d         -12.538 208.373 113.984  0.00  0.00     0.039 C 
BRANCH  12  14
ATOM     14  C9   11 d         -12.732 206.112 115.291  0.00  0.00    -0.034 A 
ATOM     15  C10  11 d         -14.116 206.004 115.029  0.00  0.00     0.009 A 
ATOM     16  C11  11 d         -14.934 205.164 115.800  0.00  0.00     0.001 A 
ATOM     17  C12  11 d         -14.386 204.432 116.860  0.00  0.00     0.000 A 
ATOM     18  C13  11 d         -13.023 204.545 117.155  0.00  0.00     0.001 A 
ATOM     19  C14  11 d         -12.201 205.383 116.384  0.00  0.00     0.009 A 
ENDBRANCH  12  14
ENDBRANCH   2  12
TORSDOF 4
ENDMDL
MODEL 10
REMARK VINA RESULT:      -6.9      4.501      6.192
REMARK  4 active torsions:
REMARK  status: ('A' for Active; 'I' for Inactive)
REMARK    1  A    between atoms: C1_1  and  C7_9 
REMARK    2  A    between atoms: C2_2  and  O1_8 
REMARK    3  A    between atoms: N1_10  and  C8_11 
REMARK    4  A    between atoms: C8_11  and  C9_12 
ROOT
ATOM      1  C7   11 d          -7.632 209.560 114.757  0.00  0.00     0.125 C 
ATOM      2  N1   11 d          -8.811 209.510 114.156  0.00  0.00    -0.291 NA
ENDROOT
BRANCH   1   3
ATOM      3  C1   11 d          -6.837 208.633 115.668  0.00  0.00     0.015 A 
ATOM      4  C2   11 d          -7.046 208.251 117.031  0.00  0.00     0.077 A 
ATOM      5  C3   11 d          -6.197 207.311 117.646  0.00  0.00     0.039 A 
ATOM      6  C4   11 d          -5.106 206.770 116.964  0.00  0.00     0.022 A 
ATOM      7  C5   11 d          -4.857 207.153 115.648  0.00  0.00     0.011 A 
ATOM      8 Br1   11 d          -3.350 206.413 114.700  0.00  0.00    -0.051 Br
ATOM      9  C6   11 d          -5.709 208.065 115.012  0.00  0.00     0.034 A 
BRANCH   4  10
ATOM     10  O1   11 d          -8.114 208.702 117.827  0.00  0.00    -0.360 OA
ATOM     11  H4   11 d          -8.049 209.736 117.827  0.00  0.00     0.217 HD
ENDBRANCH   4  10
ENDBRANCH   1   3
BRANCH   2  12
ATOM     12  C8   11 d          -9.897 208.515 114.207  0.00  0.00     0.136 C 
ATOM     13  C15  11 d         -10.931 208.937 115.274  0.00  0.00     0.039 C 
BRANCH  12  14
ATOM     14  C9   11 d         -10.442 208.085 112.846  0.00  0.00    -0.034 A 
ATOM     15  C10  11 d         -11.461 207.106 112.794  0.00  0.00     0.009 A 
ATOM     16  C11  11 d         -11.987 206.676 111.568  0.00  0.00     0.001 A 
ATOM     17  C12  11 d         -11.491 207.201 110.368  0.00  0.00     0.000 A 
ATOM     18  C13  11 d         -10.463 208.151 110.394  0.00  0.00     0.001 A 
ATOM     19  C14  11 d          -9.936 208.585 111.621  0.00  0.00     0.009 A 
ENDBRANCH  12  14
ENDBRANCH   2  12
TORSDOF 4
ENDMDL
