MODEL 1
REMARK VINA RESULT:      -9.3      0.000      0.000
REMARK  2 active torsions:
REMARK  status: ('A' for Active; 'I' for Inactive)
REMARK    1  A    between atoms: C1_1  and  N3_15 
REMARK    2  A    between atoms: C12_16  and  C13_17 
ROOT
ATOM      1  C1   11 d         -10.724 208.211 113.276  0.00  0.00     0.150 A 
ATOM      2  C2   11 d         -10.018 208.578 114.402  0.00  0.00     0.297 A 
ATOM      3  N1   11 d          -8.724 208.786 114.072  0.00  0.00    -0.217 N 
ATOM      4  C3   11 d          -7.693 209.167 115.008  0.00  0.00     0.060 A 
ATOM      5  C4   11 d          -6.875 210.287 114.759  0.00  0.00     0.031 A 
ATOM      6  C5   11 d          -5.873 210.652 115.671  0.00  0.00     0.002 A 
ATOM      7  C6   11 d          -5.684 209.903 116.844  0.00  0.00     0.000 A 
ATOM      8  C7   11 d          -6.497 208.791 117.103  0.00  0.00     0.002 A 
ATOM      9  C8   11 d          -7.499 208.425 116.190  0.00  0.00     0.031 A 
ATOM     10  N2   11 d          -8.586 208.593 112.777  0.00  0.00    -0.289 N 
ATOM     11  C9   11 d          -9.783 208.210 112.244  0.00  0.00     0.059 A 
ATOM     12  C10  11 d         -10.087 208.113 110.774  0.00  0.00     0.072 C 
ATOM     13  C11  11 d          -7.316 208.620 112.040  0.00  0.00     0.178 C 
ATOM     14  O1   11 d         -10.507 208.708 115.555  0.00  0.00    -0.264 OA
ENDROOT
BRANCH   1  15
ATOM     15  N3   11 d         -12.147 207.937 113.240  0.00  0.00    -0.253 NA
ATOM     16  C12  11 d         -12.592 207.035 112.397  0.00  0.00     0.129 C 
BRANCH  16  17
ATOM     17  C13  11 d         -14.039 206.719 112.310  0.00  0.00    -0.019 A 
ATOM     18  C14  11 d         -14.784 206.327 113.444  0.00  0.00     0.013 A 
ATOM     19  C15  11 d         -16.149 206.024 113.329  0.00  0.00     0.001 A 
ATOM     20  C16  11 d         -16.784 206.109 112.083  0.00  0.00     0.000 A 
ATOM     21  C17  11 d         -16.056 206.498 110.950  0.00  0.00     0.001 A 
ATOM     22  C18  11 d         -14.690 206.803 111.063  0.00  0.00     0.013 A 
ENDBRANCH  16  17
ENDBRANCH   1  15
TORSDOF 2
ENDMDL
MODEL 2
REMARK VINA RESULT:      -8.8      1.814      8.190
REMARK  2 active torsions:
REMARK  status: ('A' for Active; 'I' for Inactive)
REMARK    1  A    between atoms: C1_1  and  N3_15 
REMARK    2  A    between atoms: C12_16  and  C13_17 
ROOT
ATOM      1  C1   11 d         -10.373 208.050 113.297  0.00  0.00     0.150 A 
ATOM      2  C2   11 d         -11.293 207.523 112.415  0.00  0.00     0.297 A 
ATOM      3  N1   11 d         -12.490 207.408 113.032  0.00  0.00    -0.217 N 
ATOM      4  C3   11 d         -13.681 206.878 112.411  0.00  0.00     0.060 A 
ATOM      5  C4   11 d         -14.887 207.606 112.434  0.00  0.00     0.031 A 
ATOM      6  C5   11 d         -16.042 207.084 111.831  0.00  0.00     0.002 A 
ATOM      7  C6   11 d         -16.000 205.834 111.196  0.00  0.00     0.000 A 
ATOM      8  C7   11 d         -14.802 205.105 111.163  0.00  0.00     0.002 A 
ATOM      9  C8   11 d         -13.647 205.625 111.767  0.00  0.00     0.031 A 
ATOM     10  N2   11 d         -12.374 207.864 114.261  0.00  0.00    -0.289 N 
ATOM     11  C9   11 d         -11.082 208.246 114.484  0.00  0.00     0.059 A 
ATOM     12  C10  11 d         -10.600 209.021 115.680  0.00  0.00     0.072 C 
ATOM     13  C11  11 d         -13.419 207.821 115.291  0.00  0.00     0.178 C 
ATOM     14  O1   11 d         -11.055 207.210 111.219  0.00  0.00    -0.264 OA
ENDROOT
BRANCH   1  15
ATOM     15  N3   11 d          -8.989 208.342 112.978  0.00  0.00    -0.253 NA
ATOM     16  C12  11 d          -8.163 208.616 113.959  0.00  0.00     0.129 C 
BRANCH  16  17
ATOM     17  C13  11 d          -6.737 208.932 113.692  0.00  0.00    -0.019 A 
ATOM     18  C14  11 d          -5.998 208.250 112.700  0.00  0.00     0.013 A 
ATOM     19  C15  11 d          -4.649 208.564 112.478  0.00  0.00     0.001 A 
ATOM     20  C16  11 d          -4.024 209.560 113.240  0.00  0.00     0.000 A 
ATOM     21  C17  11 d          -4.748 210.245 114.227  0.00  0.00     0.001 A 
ATOM     22  C18  11 d          -6.098 209.933 114.451  0.00  0.00     0.013 A 
ENDBRANCH  16  17
ENDBRANCH   1  15
TORSDOF 2
ENDMDL
MODEL 3
REMARK VINA RESULT:      -8.8      1.793      8.149
REMARK  2 active torsions:
REMARK  status: ('A' for Active; 'I' for Inactive)
REMARK    1  A    between atoms: C1_1  and  N3_15 
REMARK    2  A    between atoms: C12_16  and  C13_17 
ROOT
ATOM      1  C1   11 d         -10.400 207.966 113.368  0.00  0.00     0.150 A 
ATOM      2  C2   11 d         -11.311 207.448 112.472  0.00  0.00     0.297 A 
ATOM      3  N1   11 d         -12.529 207.385 113.057  0.00  0.00    -0.217 N 
ATOM      4  C3   11 d         -13.718 206.878 112.415  0.00  0.00     0.060 A 
ATOM      5  C4   11 d         -14.900 207.644 112.386  0.00  0.00     0.031 A 
ATOM      6  C5   11 d         -16.055 207.146 111.762  0.00  0.00     0.002 A 
ATOM      7  C6   11 d         -16.035 205.879 111.158  0.00  0.00     0.000 A 
ATOM      8  C7   11 d         -14.861 205.112 111.177  0.00  0.00     0.002 A 
ATOM      9  C8   11 d         -13.707 205.610 111.801  0.00  0.00     0.031 A 
ATOM     10  N2   11 d         -12.432 207.868 114.278  0.00  0.00    -0.289 N 
ATOM     11  C9   11 d         -11.135 208.213 114.529  0.00  0.00     0.059 A 
ATOM     12  C10  11 d         -10.662 209.001 115.720  0.00  0.00     0.072 C 
ATOM     13  C11  11 d         -13.507 207.883 115.278  0.00  0.00     0.178 C 
ATOM     14  O1   11 d         -11.051 207.098 111.291  0.00  0.00    -0.264 OA
ENDROOT
BRANCH   1  15
ATOM     15  N3   11 d          -8.999 208.206 113.082  0.00  0.00    -0.253 NA
ATOM     16  C12  11 d          -8.256 208.762 114.009  0.00  0.00     0.129 C 
BRANCH  16  17
ATOM     17  C13  11 d          -6.818 209.041 113.769  0.00  0.00    -0.019 A 
ATOM     18  C14  11 d          -6.123 210.035 114.492  0.00  0.00     0.013 A 
ATOM     19  C15  11 d          -4.766 210.283 114.236  0.00  0.00     0.001 A 
ATOM     20  C16  11 d          -4.089 209.542 113.257  0.00  0.00     0.000 A 
ATOM     21  C17  11 d          -4.768 208.551 112.534  0.00  0.00     0.001 A 
ATOM     22  C18  11 d          -6.125 208.301 112.789  0.00  0.00     0.013 A 
ENDBRANCH  16  17
ENDBRANCH   1  15
TORSDOF 2
ENDMDL
MODEL 4
REMARK VINA RESULT:      -8.7      1.667      2.902
REMARK  2 active torsions:
REMARK  status: ('A' for Active; 'I' for Inactive)
REMARK    1  A    between atoms: C1_1  and  N3_15 
REMARK    2  A    between atoms: C12_16  and  C13_17 
ROOT
ATOM      1  C1   11 d         -10.936 208.351 114.773  0.00  0.00     0.150 A 
ATOM      2  C2   11 d          -9.654 208.697 114.399  0.00  0.00     0.297 A 
ATOM      3  N1   11 d          -8.846 208.658 115.482  0.00  0.00    -0.217 N 
ATOM      4  C3   11 d          -7.438 208.978 115.461  0.00  0.00     0.060 A 
ATOM      5  C4   11 d          -6.490 208.080 115.990  0.00  0.00     0.031 A 
ATOM      6  C5   11 d          -5.123 208.397 115.969  0.00  0.00     0.002 A 
ATOM      7  C6   11 d          -4.691 209.612 115.415  0.00  0.00     0.000 A 
ATOM      8  C7   11 d          -5.627 210.510 114.881  0.00  0.00     0.002 A 
ATOM      9  C8   11 d          -6.995 210.194 114.902  0.00  0.00     0.031 A 
ATOM     10  N2   11 d          -9.556 208.276 116.522  0.00  0.00    -0.289 N 
ATOM     11  C9   11 d         -10.856 208.101 116.145  0.00  0.00     0.059 A 
ATOM     12  C10  11 d         -11.925 207.458 116.986  0.00  0.00     0.072 C 
ATOM     13  C11  11 d          -9.073 208.206 117.907  0.00  0.00     0.178 C 
ATOM     14  O1   11 d          -9.294 208.992 113.229  0.00  0.00    -0.264 OA
ENDROOT
BRANCH   1  15
ATOM     15  N3   11 d         -12.067 208.255 113.872  0.00  0.00    -0.253 NA
ATOM     16  C12  11 d         -12.301 207.110 113.277  0.00  0.00     0.129 C 
BRANCH  16  17
ATOM     17  C13  11 d         -13.439 206.956 112.337  0.00  0.00    -0.019 A 
ATOM     18  C14  11 d         -13.239 206.759 110.953  0.00  0.00     0.013 A 
ATOM     19  C15  11 d         -14.335 206.627 110.088  0.00  0.00     0.001 A 
ATOM     20  C16  11 d         -15.641 206.689 110.593  0.00  0.00     0.000 A 
ATOM     21  C17  11 d         -15.852 206.883 111.966  0.00  0.00     0.001 A 
ATOM     22  C18  11 d         -14.757 207.014 112.833  0.00  0.00     0.013 A 
ENDBRANCH  16  17
ENDBRANCH   1  15
TORSDOF 2
ENDMDL
MODEL 5
REMARK VINA RESULT:      -8.4      1.158      7.883
REMARK  2 active torsions:
REMARK  status: ('A' for Active; 'I' for Inactive)
REMARK    1  A    between atoms: C1_1  and  N3_15 
REMARK    2  A    between atoms: C12_16  and  C13_17 
ROOT
ATOM      1  C1   11 d         -10.289 208.291 113.496  0.00  0.00     0.150 A 
ATOM      2  C2   11 d         -11.544 207.739 113.643  0.00  0.00     0.297 A 
ATOM      3  N1   11 d         -12.024 207.388 112.428  0.00  0.00    -0.217 N 
ATOM      4  C3   11 d         -13.320 206.794 112.203  0.00  0.00     0.060 A 
ATOM      5  C4   11 d         -13.444 205.600 111.466  0.00  0.00     0.031 A 
ATOM      6  C5   11 d         -14.707 205.027 111.248  0.00  0.00     0.002 A 
ATOM      7  C6   11 d         -15.856 205.641 111.770  0.00  0.00     0.000 A 
ATOM      8  C7   11 d         -15.742 206.827 112.510  0.00  0.00     0.002 A 
ATOM      9  C8   11 d         -14.479 207.400 112.728  0.00  0.00     0.031 A 
ATOM     10  N2   11 d         -11.114 207.670 111.521  0.00  0.00    -0.289 N 
ATOM     11  C9   11 d         -10.036 208.254 112.123  0.00  0.00     0.059 A 
ATOM     12  C10  11 d          -8.709 208.515 111.464  0.00  0.00     0.072 C 
ATOM     13  C11  11 d         -11.284 207.535 110.068  0.00  0.00     0.178 C 
ATOM     14  O1   11 d         -12.144 207.579 114.738  0.00  0.00    -0.264 OA
ENDROOT
BRANCH   1  15
ATOM     15  N3   11 d          -9.454 208.757 114.585  0.00  0.00    -0.253 NA
ATOM     16  C12  11 d          -8.151 208.682 114.454  0.00  0.00     0.129 C 
BRANCH  16  17
ATOM     17  C13  11 d          -7.247 209.136 115.540  0.00  0.00    -0.019 A 
ATOM     18  C14  11 d          -6.376 210.235 115.372  0.00  0.00     0.013 A 
ATOM     19  C15  11 d          -5.525 210.633 116.414  0.00  0.00     0.001 A 
ATOM     20  C16  11 d          -5.534 209.941 117.633  0.00  0.00     0.000 A 
ATOM     21  C17  11 d          -6.395 208.849 117.812  0.00  0.00     0.001 A 
ATOM     22  C18  11 d          -7.248 208.449 116.771  0.00  0.00     0.013 A 
ENDBRANCH  16  17
ENDBRANCH   1  15
TORSDOF 2
ENDMDL
MODEL 6
REMARK VINA RESULT:      -8.4      1.475      2.198
REMARK  2 active torsions:
REMARK  status: ('A' for Active; 'I' for Inactive)
REMARK    1  A    between atoms: C1_1  and  N3_15 
REMARK    2  A    between atoms: C12_16  and  C13_17 
ROOT
ATOM      1  C1   11 d          -8.725 208.575 113.532  0.00  0.00     0.150 A 
ATOM      2  C2   11 d          -8.534 208.872 114.866  0.00  0.00     0.297 A 
ATOM      3  N1   11 d          -7.208 208.905 115.131  0.00  0.00    -0.217 N 
ATOM      4  C3   11 d          -6.643 209.171 116.433  0.00  0.00     0.060 A 
ATOM      5  C4   11 d          -5.665 210.170 116.600  0.00  0.00     0.031 A 
ATOM      6  C5   11 d          -5.117 210.424 117.867  0.00  0.00     0.002 A 
ATOM      7  C6   11 d          -5.547 209.683 118.979  0.00  0.00     0.000 A 
ATOM      8  C7   11 d          -6.525 208.690 118.823  0.00  0.00     0.002 A 
ATOM      9  C8   11 d          -7.073 208.436 117.556  0.00  0.00     0.031 A 
ATOM     10  N2   11 d          -6.551 208.667 114.016  0.00  0.00    -0.289 N 
ATOM     11  C9   11 d          -7.439 208.430 113.007  0.00  0.00     0.059 A 
ATOM     12  C10  11 d          -7.090 208.341 111.546  0.00  0.00     0.072 C 
ATOM     13  C11  11 d          -5.095 208.515 113.898  0.00  0.00     0.178 C 
ATOM     14  O1   11 d          -9.451 209.089 115.700  0.00  0.00    -0.264 OA
ENDROOT
BRANCH   1  15
ATOM     15  N3   11 d         -10.015 208.484 112.879  0.00  0.00    -0.253 NA
ATOM     16  C12  11 d         -10.761 207.428 113.103  0.00  0.00     0.129 C 
BRANCH  16  17
ATOM     17  C13  11 d         -12.087 207.277 112.453  0.00  0.00    -0.019 A 
ATOM     18  C14  11 d         -13.290 207.474 113.166  0.00  0.00     0.013 A 
ATOM     19  C15  11 d         -14.529 207.314 112.528  0.00  0.00     0.001 A 
ATOM     20  C16  11 d         -14.580 206.956 111.173  0.00  0.00     0.000 A 
ATOM     21  C17  11 d         -13.392 206.759 110.455  0.00  0.00     0.001 A 
ATOM     22  C18  11 d         -12.152 206.920 111.092  0.00  0.00     0.013 A 
ENDBRANCH  16  17
ENDBRANCH   1  15
TORSDOF 2
ENDMDL
MODEL 7
REMARK VINA RESULT:      -8.2      5.004      8.170
REMARK  2 active torsions:
REMARK  status: ('A' for Active; 'I' for Inactive)
REMARK    1  A    between atoms: C1_1  and  N3_15 
REMARK    2  A    between atoms: C12_16  and  C13_17 
ROOT
ATOM      1  C1   11 d         -13.596 205.655 116.388  0.00  0.00     0.150 A 
ATOM      2  C2   11 d         -14.417 205.556 115.284  0.00  0.00     0.297 A 
ATOM      3  N1   11 d         -13.897 206.288 114.273  0.00  0.00    -0.217 N 
ATOM      4  C3   11 d         -14.503 206.426 112.970  0.00  0.00     0.060 A 
ATOM      5  C4   11 d         -13.761 206.162 111.802  0.00  0.00     0.031 A 
ATOM      6  C5   11 d         -14.355 206.301 110.537  0.00  0.00     0.002 A 
ATOM      7  C6   11 d         -15.696 206.699 110.431  0.00  0.00     0.000 A 
ATOM      8  C7   11 d         -16.444 206.957 111.588  0.00  0.00     0.002 A 
ATOM      9  C8   11 d         -15.851 206.820 112.853  0.00  0.00     0.031 A 
ATOM     10  N2   11 d         -12.767 206.824 114.682  0.00  0.00    -0.289 N 
ATOM     11  C9   11 d         -12.550 206.488 115.987  0.00  0.00     0.059 A 
ATOM     12  C10  11 d         -11.268 206.717 116.741  0.00  0.00     0.072 C 
ATOM     13  C11  11 d         -11.945 207.771 113.918  0.00  0.00     0.178 C 
ATOM     14  O1   11 d         -15.478 204.882 115.226  0.00  0.00    -0.264 OA
ENDROOT
BRANCH   1  15
ATOM     15  N3   11 d         -13.819 204.979 117.652  0.00  0.00    -0.253 NA
ATOM     16  C12  11 d         -14.191 205.692 118.688  0.00  0.00     0.129 C 
BRANCH  16  17
ATOM     17  C13  11 d         -14.425 205.056 120.008  0.00  0.00    -0.019 A 
ATOM     18  C14  11 d         -13.600 205.330 121.121  0.00  0.00     0.013 A 
ATOM     19  C15  11 d         -13.839 204.705 122.354  0.00  0.00     0.001 A 
ATOM     20  C16  11 d         -14.902 203.802 122.490  0.00  0.00     0.000 A 
ATOM     21  C17  11 d         -15.729 203.522 121.392  0.00  0.00     0.001 A 
ATOM     22  C18  11 d         -15.492 204.147 120.158  0.00  0.00     0.013 A 
ENDBRANCH  16  17
ENDBRANCH   1  15
TORSDOF 2
ENDMDL
MODEL 8
REMARK VINA RESULT:      -8.1      2.340      3.417
REMARK  2 active torsions:
REMARK  status: ('A' for Active; 'I' for Inactive)
REMARK    1  A    between atoms: C1_1  and  N3_15 
REMARK    2  A    between atoms: C12_16  and  C13_17 
ROOT
ATOM      1  C1   11 d          -9.200 208.568 113.712  0.00  0.00     0.150 A 
ATOM      2  C2   11 d          -7.937 208.407 113.182  0.00  0.00     0.297 A 
ATOM      3  N1   11 d          -7.022 208.492 114.174  0.00  0.00    -0.217 N 
ATOM      4  C3   11 d          -5.595 208.385 113.978  0.00  0.00     0.060 A 
ATOM      5  C4   11 d          -4.833 207.476 114.738  0.00  0.00     0.031 A 
ATOM      6  C5   11 d          -3.446 207.378 114.545  0.00  0.00     0.002 A 
ATOM      7  C6   11 d          -2.810 208.184 113.588  0.00  0.00     0.000 A 
ATOM      8  C7   11 d          -3.562 209.087 112.823  0.00  0.00     0.002 A 
ATOM      9  C8   11 d          -4.949 209.187 113.015  0.00  0.00     0.031 A 
ATOM     10  N2   11 d          -7.653 208.673 115.313  0.00  0.00    -0.289 N 
ATOM     11  C9   11 d          -8.996 208.755 115.081  0.00  0.00     0.059 A 
ATOM     12  C10  11 d         -10.063 208.736 116.141  0.00  0.00     0.072 C 
ATOM     13  C11  11 d          -7.017 208.916 116.614  0.00  0.00     0.178 C 
ATOM     14  O1   11 d          -7.681 208.202 111.967  0.00  0.00    -0.264 OA
ENDROOT
BRANCH   1  15
ATOM     15  N3   11 d         -10.434 208.508 112.953  0.00  0.00    -0.253 NA
ATOM     16  C12  11 d         -11.097 207.377 112.921  0.00  0.00     0.129 C 
BRANCH  16  17
ATOM     17  C13  11 d         -12.361 207.254 112.153  0.00  0.00    -0.019 A 
ATOM     18  C14  11 d         -12.365 207.024 110.760  0.00  0.00     0.013 A 
ATOM     19  C15  11 d         -13.575 206.923 110.059  0.00  0.00     0.001 A 
ATOM     20  C16  11 d         -14.794 207.050 110.739  0.00  0.00     0.000 A 
ATOM     21  C17  11 d         -14.804 207.278 112.123  0.00  0.00     0.001 A 
ATOM     22  C18  11 d         -13.593 207.379 112.826  0.00  0.00     0.013 A 
ENDBRANCH  16  17
ENDBRANCH   1  15
TORSDOF 2
ENDMDL
MODEL 9
REMARK VINA RESULT:      -8.1      2.705      8.252
REMARK  2 active torsions:
REMARK  status: ('A' for Active; 'I' for Inactive)
REMARK    1  A    between atoms: C1_1  and  N3_15 
REMARK    2  A    between atoms: C12_16  and  C13_17 
ROOT
ATOM      1  C1   11 d         -12.199 207.526 115.967  0.00  0.00     0.150 A 
ATOM      2  C2   11 d         -12.363 207.677 114.606  0.00  0.00     0.297 A 
ATOM      3  N1   11 d         -13.457 206.988 114.208  0.00  0.00    -0.217 N 
ATOM      4  C3   11 d         -13.920 206.911 112.842  0.00  0.00     0.060 A 
ATOM      5  C4   11 d         -15.255 207.222 112.519  0.00  0.00     0.031 A 
ATOM      6  C5   11 d         -15.701 207.142 111.190  0.00  0.00     0.002 A 
ATOM      7  C6   11 d         -14.814 206.756 110.173  0.00  0.00     0.000 A 
ATOM      8  C7   11 d         -13.482 206.451 110.485  0.00  0.00     0.002 A 
ATOM      9  C8   11 d         -13.035 206.529 111.814  0.00  0.00     0.031 A 
ATOM     10  N2   11 d         -14.007 206.428 115.264  0.00  0.00    -0.289 N 
ATOM     11  C9   11 d         -13.256 206.706 116.369  0.00  0.00     0.059 A 
ATOM     12  C10  11 d         -13.670 206.437 117.790  0.00  0.00     0.072 C 
ATOM     13  C11  11 d         -15.155 205.512 115.245  0.00  0.00     0.178 C 
ATOM     14  O1   11 d         -11.617 208.359 113.856  0.00  0.00    -0.264 OA
ENDROOT
BRANCH   1  15
ATOM     15  N3   11 d         -11.149 208.146 116.750  0.00  0.00    -0.253 NA
ATOM     16  C12  11 d         -10.172 207.394 117.198  0.00  0.00     0.129 C 
BRANCH  16  17
ATOM     17  C13  11 d          -9.075 207.973 118.013  0.00  0.00    -0.019 A 
ATOM     18  C14  11 d          -9.308 208.513 119.297  0.00  0.00     0.013 A 
ATOM     19  C15  11 d          -8.253 209.063 120.039  0.00  0.00     0.001 A 
ATOM     20  C16  11 d          -6.955 209.079 119.510  0.00  0.00     0.000 A 
ATOM     21  C17  11 d          -6.710 208.544 118.237  0.00  0.00     0.001 A 
ATOM     22  C18  11 d          -7.765 207.993 117.493  0.00  0.00     0.013 A 
ENDBRANCH  16  17
ENDBRANCH   1  15
TORSDOF 2
ENDMDL
MODEL 10
REMARK VINA RESULT:      -8.0      3.261      7.741
REMARK  2 active torsions:
REMARK  status: ('A' for Active; 'I' for Inactive)
REMARK    1  A    between atoms: C1_1  and  N3_15 
REMARK    2  A    between atoms: C12_16  and  C13_17 
ROOT
ATOM      1  C1   11 d         -12.287 206.425 114.471  0.00  0.00     0.150 A 
ATOM      2  C2   11 d         -12.489 205.789 115.678  0.00  0.00     0.297 A 
ATOM      3  N1   11 d         -13.800 205.482 115.808  0.00  0.00    -0.217 N 
ATOM      4  C3   11 d         -14.373 204.824 116.958  0.00  0.00     0.060 A 
ATOM      5  C4   11 d         -15.168 203.671 116.803  0.00  0.00     0.031 A 
ATOM      6  C5   11 d         -15.724 203.036 117.924  0.00  0.00     0.002 A 
ATOM      7  C6   11 d         -15.487 203.545 119.210  0.00  0.00     0.000 A 
ATOM      8  C7   11 d         -14.692 204.688 119.375  0.00  0.00     0.002 A 
ATOM      9  C8   11 d         -14.136 205.325 118.254  0.00  0.00     0.031 A 
ATOM     10  N2   11 d         -14.432 205.874 114.723  0.00  0.00    -0.289 N 
ATOM     11  C9   11 d         -13.551 206.487 113.879  0.00  0.00     0.059 A 
ATOM     12  C10  11 d         -13.838 206.868 112.453  0.00  0.00     0.072 C 
ATOM     13  C11  11 d         -15.885 205.817 114.513  0.00  0.00     0.178 C 
ATOM     14  O1   11 d         -11.591 205.526 116.519  0.00  0.00    -0.264 OA
ENDROOT
BRANCH   1  15
ATOM     15  N3   11 d         -11.002 206.875 113.974  0.00  0.00    -0.253 NA
ATOM     16  C12  11 d         -10.537 208.029 114.389  0.00  0.00     0.129 C 
BRANCH  16  17
ATOM     17  C13  11 d          -9.231 208.544 113.907  0.00  0.00    -0.019 A 
ATOM     18  C14  11 d          -8.762 208.275 112.602  0.00  0.00     0.013 A 
ATOM     19  C15  11 d          -7.518 208.767 112.179  0.00  0.00     0.001 A 
ATOM     20  C16  11 d          -6.731 209.532 113.050  0.00  0.00     0.000 A 
ATOM     21  C17  11 d          -7.187 209.807 114.348  0.00  0.00     0.001 A 
ATOM     22  C18  11 d          -8.431 209.316 114.773  0.00  0.00     0.013 A 
ENDBRANCH  16  17
ENDBRANCH   1  15
TORSDOF 2
ENDMDL
