MODEL 1
REMARK VINA RESULT:      -7.5      0.000      0.000
REMARK  3 active torsions:
REMARK  status: ('A' for Active; 'I' for Inactive)
REMARK    1  A    between atoms: C1_1  and  S1_2 
REMARK    2  A    between atoms: S1_2  and  N1_5 
REMARK    3  A    between atoms: N1_5  and  C2_6 
ROOT
ATOM      1  S1   11 d         -14.655 206.417 111.883  0.00  0.00     0.263 S 
ATOM      2  O1   11 d         -15.586 205.229 111.623  0.00  0.00    -0.200 OA
ATOM      3  O2   11 d         -15.322 207.654 111.274  0.00  0.00    -0.200 OA
ENDROOT
BRANCH   1   4
ATOM      4  C1   11 d         -14.465 206.673 113.652  0.00  0.00     0.080 A 
ATOM      5  C8   11 d         -14.386 207.970 114.192  0.00  0.00     0.026 A 
ATOM      6  C9   11 d         -14.236 208.150 115.576  0.00  0.00     0.020 A 
ATOM      7  C10  11 d         -14.161 207.036 116.426  0.00  0.00     0.011 A 
ATOM      8 Br2   11 d         -13.946 207.285 118.326  0.00  0.00    -0.051 Br
ATOM      9  C11  11 d         -14.241 205.740 115.892  0.00  0.00     0.020 A 
ATOM     10  C12  11 d         -14.396 205.559 114.509  0.00  0.00     0.026 A 
ENDBRANCH   1   4
BRANCH   1  11
ATOM     11  N1   11 d         -13.176 206.136 111.120  0.00  0.00    -0.281 N 
ATOM     12  H1   11 d         -13.162 205.405 110.447  0.00  0.00     0.179 HD
BRANCH  11  13
ATOM     13  C2   11 d         -12.007 206.852 111.366  0.00  0.00     0.042 A 
ATOM     14  C3   11 d         -11.464 206.830 112.669  0.00  0.00     0.031 A 
ATOM     15  C4   11 d         -10.278 207.518 112.968  0.00  0.00     0.021 A 
ATOM     16  C5   11 d          -9.617 208.246 111.970  0.00  0.00     0.011 A 
ATOM     17 Br1   11 d          -7.986 209.188 112.379  0.00  0.00    -0.051 Br
ATOM     18  C6   11 d         -10.145 208.285 110.672  0.00  0.00     0.021 A 
ATOM     19  C7   11 d         -11.327 207.594 110.370  0.00  0.00     0.031 A 
ENDBRANCH  11  13
ENDBRANCH   1  11
TORSDOF 3
ENDMDL
MODEL 2
REMARK VINA RESULT:      -7.5      4.322      7.153
REMARK  3 active torsions:
REMARK  status: ('A' for Active; 'I' for Inactive)
REMARK    1  A    between atoms: C1_1  and  S1_2 
REMARK    2  A    between atoms: S1_2  and  N1_5 
REMARK    3  A    between atoms: N1_5  and  C2_6 
ROOT
ATOM      1  S1   11 d          -9.157 208.819 113.340  0.00  0.00     0.263 S 
ATOM      2  O1   11 d          -9.504 209.557 114.636  0.00  0.00    -0.200 OA
ATOM      3  O2   11 d          -9.564 209.732 112.179  0.00  0.00    -0.200 OA
ENDROOT
BRANCH   1   4
ATOM      4  C1   11 d          -7.386 208.526 113.255  0.00  0.00     0.080 A 
ATOM      5  C8   11 d          -6.617 208.394 114.426  0.00  0.00     0.026 A 
ATOM      6  C9   11 d          -5.235 208.167 114.340  0.00  0.00     0.020 A 
ATOM      7  C10  11 d          -4.614 208.075 113.085  0.00  0.00     0.011 A 
ATOM      8 Br2   11 d          -2.713 207.772 112.968  0.00  0.00    -0.051 Br
ATOM      9  C11  11 d          -5.377 208.205 111.914  0.00  0.00     0.020 A 
ATOM     10  C12  11 d          -6.761 208.426 111.999  0.00  0.00     0.026 A 
ENDBRANCH   1   4
BRANCH   1  11
ATOM     11  N1   11 d         -10.042 207.384 113.270  0.00  0.00    -0.281 N 
ATOM     12  H1   11 d          -9.580 206.568 113.599  0.00  0.00     0.179 HD
BRANCH  11  13
ATOM     13  C2   11 d         -11.348 207.278 112.797  0.00  0.00     0.042 A 
ATOM     14  C3   11 d         -11.550 206.885 111.455  0.00  0.00     0.031 A 
ATOM     15  C4   11 d         -12.844 206.744 110.932  0.00  0.00     0.021 A 
ATOM     16  C5   11 d         -13.961 207.000 111.739  0.00  0.00     0.011 A 
ATOM     17 Br1   11 d         -15.739 206.803 111.022  0.00  0.00    -0.051 Br
ATOM     18  C6   11 d         -13.779 207.398 113.071  0.00  0.00     0.021 A 
ATOM     19  C7   11 d         -12.487 207.534 113.598  0.00  0.00     0.031 A 
ENDBRANCH  11  13
ENDBRANCH   1  11
TORSDOF 3
ENDMDL
MODEL 3
REMARK VINA RESULT:      -7.4      0.909      5.283
REMARK  3 active torsions:
REMARK  status: ('A' for Active; 'I' for Inactive)
REMARK    1  A    between atoms: C1_1  and  S1_2 
REMARK    2  A    between atoms: S1_2  and  N1_5 
REMARK    3  A    between atoms: N1_5  and  C2_6 
ROOT
ATOM      1  S1   11 d         -14.047 206.313 111.210  0.00  0.00     0.263 S 
ATOM      2  O1   11 d         -14.575 206.750 109.841  0.00  0.00    -0.200 OA
ATOM      3  O2   11 d         -13.972 204.783 111.197  0.00  0.00    -0.200 OA
ENDROOT
BRANCH   1   4
ATOM      4  C1   11 d         -12.396 206.973 111.472  0.00  0.00     0.080 A 
ATOM      5  C8   11 d         -11.813 206.977 112.753  0.00  0.00     0.026 A 
ATOM      6  C9   11 d         -10.523 207.498 112.938  0.00  0.00     0.020 A 
ATOM      7  C10  11 d          -9.812 208.022 111.848  0.00  0.00     0.011 A 
ATOM      8 Br2   11 d          -8.044 208.746 112.106  0.00  0.00    -0.051 Br
ATOM      9  C11  11 d         -10.390 208.019 110.568  0.00  0.00     0.020 A 
ATOM     10  C12  11 d         -11.678 207.492 110.381  0.00  0.00     0.026 A 
ENDBRANCH   1   4
BRANCH   1  11
ATOM     11  N1   11 d         -15.129 206.816 112.404  0.00  0.00    -0.281 N 
ATOM     12  H1   11 d         -16.043 207.055 112.095  0.00  0.00     0.179 HD
BRANCH  11  13
ATOM     13  C2   11 d         -14.829 206.907 113.762  0.00  0.00     0.042 A 
ATOM     14  C3   11 d         -14.718 205.713 114.509  0.00  0.00     0.031 A 
ATOM     15  C4   11 d         -14.399 205.745 115.875  0.00  0.00     0.021 A 
ATOM     16  C5   11 d         -14.192 206.971 116.520  0.00  0.00     0.011 A 
ATOM     17 Br1   11 d         -13.751 207.015 118.396  0.00  0.00    -0.051 Br
ATOM     18  C6   11 d         -14.305 208.167 115.796  0.00  0.00     0.021 A 
ATOM     19  C7   11 d         -14.618 208.137 114.429  0.00  0.00     0.031 A 
ENDBRANCH  11  13
ENDBRANCH   1  11
TORSDOF 3
ENDMDL
MODEL 4
REMARK VINA RESULT:      -7.2      3.669      4.358
REMARK  3 active torsions:
REMARK  status: ('A' for Active; 'I' for Inactive)
REMARK    1  A    between atoms: C1_1  and  S1_2 
REMARK    2  A    between atoms: S1_2  and  N1_5 
REMARK    3  A    between atoms: N1_5  and  C2_6 
ROOT
ATOM      1  S1   11 d         -12.228 207.502 116.142  0.00  0.00     0.263 S 
ATOM      2  O1   11 d         -12.798 207.800 117.532  0.00  0.00    -0.200 OA
ATOM      3  O2   11 d         -11.305 206.288 116.284  0.00  0.00    -0.200 OA
ENDROOT
BRANCH   1   4
ATOM      4  C1   11 d         -13.560 207.088 115.008  0.00  0.00     0.080 A 
ATOM      5  C8   11 d         -14.533 206.132 115.352  0.00  0.00     0.026 A 
ATOM      6  C9   11 d         -15.565 205.821 114.452  0.00  0.00     0.020 A 
ATOM      7  C10  11 d         -15.626 206.460 113.204  0.00  0.00     0.011 A 
ATOM      8 Br2   11 d         -17.039 206.026 111.966  0.00  0.00    -0.051 Br
ATOM      9  C11  11 d         -14.658 207.416 112.858  0.00  0.00     0.020 A 
ATOM     10  C12  11 d         -13.629 207.731 113.759  0.00  0.00     0.026 A 
ENDBRANCH   1   4
BRANCH   1  11
ATOM     11  N1   11 d         -11.337 208.834 115.616  0.00  0.00    -0.281 N 
ATOM     12  H1   11 d         -11.717 209.728 115.827  0.00  0.00     0.179 HD
BRANCH  11  13
ATOM     13  C2   11 d         -10.128 208.760 114.926  0.00  0.00     0.042 A 
ATOM     14  C3   11 d         -10.149 208.368 113.569  0.00  0.00     0.031 A 
ATOM     15  C4   11 d          -8.964 208.294 112.822  0.00  0.00     0.021 A 
ATOM     16  C5   11 d          -7.735 208.604 113.420  0.00  0.00     0.011 A 
ATOM     17 Br1   11 d          -6.107 208.506 112.393  0.00  0.00    -0.051 Br
ATOM     18  C6   11 d          -7.695 208.988 114.768  0.00  0.00     0.021 A 
ATOM     19  C7   11 d          -8.879 209.068 115.515  0.00  0.00     0.031 A 
ENDBRANCH  11  13
ENDBRANCH   1  11
TORSDOF 3
ENDMDL
MODEL 5
REMARK VINA RESULT:      -7.0      4.029      4.897
REMARK  3 active torsions:
REMARK  status: ('A' for Active; 'I' for Inactive)
REMARK    1  A    between atoms: C1_1  and  S1_2 
REMARK    2  A    between atoms: S1_2  and  N1_5 
REMARK    3  A    between atoms: N1_5  and  C2_6 
ROOT
ATOM      1  S1   11 d         -12.353 206.398 116.768  0.00  0.00     0.263 S 
ATOM      2  O1   11 d         -12.921 207.803 116.546  0.00  0.00    -0.200 OA
ATOM      3  O2   11 d         -11.051 206.557 117.558  0.00  0.00    -0.200 OA
ENDROOT
BRANCH   1   4
ATOM      4  C1   11 d         -13.504 205.416 117.739  0.00  0.00     0.080 A 
ATOM      5  C8   11 d         -13.809 205.763 119.068  0.00  0.00     0.026 A 
ATOM      6  C9   11 d         -14.709 204.983 119.811  0.00  0.00     0.020 A 
ATOM      7  C10  11 d         -15.305 203.853 119.232  0.00  0.00     0.011 A 
ATOM      8 Br2   11 d         -16.534 202.778 120.257  0.00  0.00    -0.051 Br
ATOM      9  C11  11 d         -15.005 203.504 117.905  0.00  0.00     0.020 A 
ATOM     10  C12  11 d         -14.109 204.287 117.160  0.00  0.00     0.026 A 
ENDBRANCH   1   4
BRANCH   1  11
ATOM     11  N1   11 d         -12.025 205.693 115.270  0.00  0.00    -0.281 N 
ATOM     12  H1   11 d         -11.324 204.989 115.261  0.00  0.00     0.179 HD
BRANCH  11  13
ATOM     13  C2   11 d         -12.666 206.026 114.078  0.00  0.00     0.042 A 
ATOM     14  C3   11 d         -11.887 206.525 113.011  0.00  0.00     0.031 A 
ATOM     15  C4   11 d         -12.477 206.858 111.782  0.00  0.00     0.021 A 
ATOM     16  C5   11 d         -13.858 206.704 111.600  0.00  0.00     0.011 A 
ATOM     17 Br1   11 d         -14.668 207.158 109.911  0.00  0.00    -0.051 Br
ATOM     18  C6   11 d         -14.648 206.216 112.651  0.00  0.00     0.021 A 
ATOM     19  C7   11 d         -14.059 205.877 113.878  0.00  0.00     0.031 A 
ENDBRANCH  11  13
ENDBRANCH   1  11
TORSDOF 3
ENDMDL
MODEL 6
REMARK VINA RESULT:      -7.0      3.886      6.106
REMARK  3 active torsions:
REMARK  status: ('A' for Active; 'I' for Inactive)
REMARK    1  A    between atoms: C1_1  and  S1_2 
REMARK    2  A    between atoms: S1_2  and  N1_5 
REMARK    3  A    between atoms: N1_5  and  C2_6 
ROOT
ATOM      1  S1   11 d         -10.767 208.175 114.789  0.00  0.00     0.263 S 
ATOM      2  O1   11 d          -9.477 208.364 113.987  0.00  0.00    -0.200 OA
ATOM      3  O2   11 d         -11.077 209.512 115.469  0.00  0.00    -0.200 OA
ENDROOT
BRANCH   1   4
ATOM      4  C1   11 d         -12.123 207.757 113.685  0.00  0.00     0.080 A 
ATOM      5  C8   11 d         -13.453 208.073 114.020  0.00  0.00     0.026 A 
ATOM      6  C9   11 d         -14.498 207.738 113.145  0.00  0.00     0.020 A 
ATOM      7  C10  11 d         -14.221 207.083 111.935  0.00  0.00     0.011 A 
ATOM      8 Br2   11 d         -15.659 206.615 110.739  0.00  0.00    -0.051 Br
ATOM      9  C11  11 d         -12.895 206.767 111.597  0.00  0.00     0.020 A 
ATOM     10  C12  11 d         -11.849 207.107 112.469  0.00  0.00     0.026 A 
ENDBRANCH   1   4
BRANCH   1  11
ATOM     11  N1   11 d         -10.517 206.988 115.963  0.00  0.00    -0.281 N 
ATOM     12  H1   11 d          -9.578 206.684 116.085  0.00  0.00     0.179 HD
BRANCH  11  13
ATOM     13  C2   11 d         -11.518 206.428 116.754  0.00  0.00     0.042 A 
ATOM     14  C3   11 d         -11.802 207.023 118.003  0.00  0.00     0.031 A 
ATOM     15  C4   11 d         -12.812 206.512 118.832  0.00  0.00     0.021 A 
ATOM     16  C5   11 d         -13.552 205.392 118.430  0.00  0.00     0.011 A 
ATOM     17 Br1   11 d         -14.943 204.693 119.566  0.00  0.00    -0.051 Br
ATOM     18  C6   11 d         -13.279 204.784 117.196  0.00  0.00     0.021 A 
ATOM     19  C7   11 d         -12.274 205.297 116.363  0.00  0.00     0.031 A 
ENDBRANCH  11  13
ENDBRANCH   1  11
TORSDOF 3
ENDMDL
MODEL 7
REMARK VINA RESULT:      -7.0      4.272      5.348
REMARK  3 active torsions:
REMARK  status: ('A' for Active; 'I' for Inactive)
REMARK    1  A    between atoms: C1_1  and  S1_2 
REMARK    2  A    between atoms: S1_2  and  N1_5 
REMARK    3  A    between atoms: N1_5  and  C2_6 
ROOT
ATOM      1  S1   11 d         -12.174 207.253 117.344  0.00  0.00     0.263 S 
ATOM      2  O1   11 d         -11.711 208.074 118.550  0.00  0.00    -0.200 OA
ATOM      3  O2   11 d         -10.928 206.605 116.733  0.00  0.00    -0.200 OA
ENDROOT
BRANCH   1   4
ATOM      4  C1   11 d         -13.299 205.957 117.879  0.00  0.00     0.080 A 
ATOM      5  C8   11 d         -13.659 204.908 117.012  0.00  0.00     0.026 A 
ATOM      6  C9   11 d         -14.540 203.906 117.447  0.00  0.00     0.020 A 
ATOM      7  C10  11 d         -15.069 203.948 118.746  0.00  0.00     0.011 A 
ATOM      8 Br2   11 d         -16.286 202.576 119.339  0.00  0.00    -0.051 Br
ATOM      9  C11  11 d         -14.711 204.992 119.614  0.00  0.00     0.020 A 
ATOM     10  C12  11 d         -13.825 205.992 119.182  0.00  0.00     0.026 A 
ENDBRANCH   1   4
BRANCH   1  11
ATOM     11  N1   11 d         -12.887 208.285 116.215  0.00  0.00    -0.281 N 
ATOM     12  H1   11 d         -12.886 209.253 116.444  0.00  0.00     0.179 HD
BRANCH  11  13
ATOM     13  C2   11 d         -13.455 207.876 115.011  0.00  0.00     0.042 A 
ATOM     14  C3   11 d         -12.614 207.724 113.886  0.00  0.00     0.031 A 
ATOM     15  C4   11 d         -13.130 207.296 112.653  0.00  0.00     0.021 A 
ATOM     16  C5   11 d         -14.497 207.019 112.521  0.00  0.00     0.011 A 
ATOM     17 Br1   11 d         -15.206 206.428 110.829  0.00  0.00    -0.051 Br
ATOM     18  C6   11 d         -15.348 207.172 113.625  0.00  0.00     0.021 A 
ATOM     19  C7   11 d         -14.834 207.593 114.859  0.00  0.00     0.031 A 
ENDBRANCH  11  13
ENDBRANCH   1  11
TORSDOF 3
ENDMDL
MODEL 8
REMARK VINA RESULT:      -6.9      3.950      6.107
REMARK  3 active torsions:
REMARK  status: ('A' for Active; 'I' for Inactive)
REMARK    1  A    between atoms: C1_1  and  S1_2 
REMARK    2  A    between atoms: S1_2  and  N1_5 
REMARK    3  A    between atoms: N1_5  and  C2_6 
ROOT
ATOM      1  S1   11 d         -12.211 207.127 117.295  0.00  0.00     0.263 S 
ATOM      2  O1   11 d         -11.880 205.673 117.644  0.00  0.00    -0.200 OA
ATOM      3  O2   11 d         -11.840 207.978 118.513  0.00  0.00    -0.200 OA
ENDROOT
BRANCH   1   4
ATOM      4  C1   11 d         -11.224 207.662 115.891  0.00  0.00     0.080 A 
ATOM      5  C8   11 d         -11.322 207.012 114.648  0.00  0.00     0.026 A 
ATOM      6  C9   11 d         -10.543 207.443 113.563  0.00  0.00     0.020 A 
ATOM      7  C10  11 d          -9.660 208.523 113.717  0.00  0.00     0.011 A 
ATOM      8 Br2   11 d          -8.583 209.108 112.229  0.00  0.00    -0.051 Br
ATOM      9  C11  11 d          -9.560 209.175 114.956  0.00  0.00     0.020 A 
ATOM     10  C12  11 d         -10.343 208.748 116.039  0.00  0.00     0.026 A 
ENDBRANCH   1   4
BRANCH   1  11
ATOM     11  N1   11 d         -13.866 207.258 116.995  0.00  0.00    -0.281 N 
ATOM     12  H1   11 d         -14.432 207.525 117.767  0.00  0.00     0.179 HD
BRANCH  11  13
ATOM     13  C2   11 d         -14.471 207.028 115.761  0.00  0.00     0.042 A 
ATOM     14  C3   11 d         -14.665 208.123 114.890  0.00  0.00     0.031 A 
ATOM     15  C4   11 d         -15.252 207.945 113.628  0.00  0.00     0.021 A 
ATOM     16  C5   11 d         -15.661 206.670 113.216  0.00  0.00     0.011 A 
ATOM     17 Br1   11 d         -16.464 206.425 111.481  0.00  0.00    -0.051 Br
ATOM     18  C6   11 d         -15.483 205.572 114.070  0.00  0.00     0.021 A 
ATOM     19  C7   11 d         -14.891 205.747 115.330  0.00  0.00     0.031 A 
ENDBRANCH  11  13
ENDBRANCH   1  11
TORSDOF 3
ENDMDL
MODEL 9
REMARK VINA RESULT:      -6.9      5.107      6.817
REMARK  3 active torsions:
REMARK  status: ('A' for Active; 'I' for Inactive)
REMARK    1  A    between atoms: C1_1  and  S1_2 
REMARK    2  A    between atoms: S1_2  and  N1_5 
REMARK    3  A    between atoms: N1_5  and  C2_6 
ROOT
ATOM      1  S1   11 d          -8.572 208.903 113.730  0.00  0.00     0.263 S 
ATOM      2  O1   11 d          -9.082 210.210 113.116  0.00  0.00    -0.200 OA
ATOM      3  O2   11 d          -7.826 208.147 112.626  0.00  0.00    -0.200 OA
ENDROOT
BRANCH   1   4
ATOM      4  C1   11 d          -7.426 209.258 115.068  0.00  0.00     0.080 A 
ATOM      5  C8   11 d          -7.415 208.477 116.239  0.00  0.00     0.026 A 
ATOM      6  C9   11 d          -6.514 208.771 117.273  0.00  0.00     0.020 A 
ATOM      7  C10  11 d          -5.622 209.847 117.146  0.00  0.00     0.011 A 
ATOM      8 Br2   11 d          -4.391 210.254 118.572  0.00  0.00    -0.051 Br
ATOM      9  C11  11 d          -5.629 210.628 115.979  0.00  0.00     0.020 A 
ATOM     10  C12  11 d          -6.526 210.331 114.941  0.00  0.00     0.026 A 
ENDBRANCH   1   4
BRANCH   1  11
ATOM     11  N1   11 d          -9.891 207.988 114.251  0.00  0.00    -0.281 N 
ATOM     12  H1   11 d          -9.864 207.677 115.194  0.00  0.00     0.179 HD
BRANCH  11  13
ATOM     13  C2   11 d         -10.990 207.656 113.461  0.00  0.00     0.042 A 
ATOM     14  C3   11 d         -12.278 207.721 114.036  0.00  0.00     0.031 A 
ATOM     15  C4   11 d         -13.421 207.416 113.281  0.00  0.00     0.021 A 
ATOM     16  C5   11 d         -13.296 207.033 111.939  0.00  0.00     0.011 A 
ATOM     17 Br1   11 d         -14.866 206.618 110.901  0.00  0.00    -0.051 Br
ATOM     18  C6   11 d         -12.024 206.957 111.353  0.00  0.00     0.021 A 
ATOM     19  C7   11 d         -10.881 207.267 112.104  0.00  0.00     0.031 A 
ENDBRANCH  11  13
ENDBRANCH   1  11
TORSDOF 3
ENDMDL
MODEL 10
REMARK VINA RESULT:      -6.9      5.026      6.109
REMARK  3 active torsions:
REMARK  status: ('A' for Active; 'I' for Inactive)
REMARK    1  A    between atoms: C1_1  and  S1_2 
REMARK    2  A    between atoms: S1_2  and  N1_5 
REMARK    3  A    between atoms: N1_5  and  C2_6 
ROOT
ATOM      1  S1   11 d          -9.000 208.894 112.828  0.00  0.00     0.263 S 
ATOM      2  O1   11 d          -7.729 208.129 112.450  0.00  0.00    -0.200 OA
ATOM      3  O2   11 d          -9.017 210.179 111.995  0.00  0.00    -0.200 OA
ENDROOT
BRANCH   1   4
ATOM      4  C1   11 d         -10.452 207.916 112.417  0.00  0.00     0.080 A 
ATOM      5  C8   11 d         -11.228 207.315 113.425  0.00  0.00     0.026 A 
ATOM      6  C9   11 d         -12.357 206.554 113.084  0.00  0.00     0.020 A 
ATOM      7  C10  11 d         -12.713 206.386 111.738  0.00  0.00     0.011 A 
ATOM      8 Br2   11 d         -14.259 205.333 111.271  0.00  0.00    -0.051 Br
ATOM      9  C11  11 d         -11.941 206.985 110.729  0.00  0.00     0.020 A 
ATOM     10  C12  11 d         -10.815 207.751 111.069  0.00  0.00     0.026 A 
ENDBRANCH   1   4
BRANCH   1  11
ATOM     11  N1   11 d          -8.941 209.284 114.469  0.00  0.00    -0.281 N 
ATOM     12  H1   11 d          -9.815 209.457 114.910  0.00  0.00     0.179 HD
BRANCH  11  13
ATOM     13  C2   11 d          -7.774 209.369 115.225  0.00  0.00     0.042 A 
ATOM     14  C3   11 d          -7.619 208.499 116.326  0.00  0.00     0.031 A 
ATOM     15  C4   11 d          -6.456 208.529 117.111  0.00  0.00     0.021 A 
ATOM     16  C5   11 d          -5.429 209.434 116.811  0.00  0.00     0.011 A 
ATOM     17 Br1   11 d          -3.829 209.472 117.885  0.00  0.00    -0.051 Br
ATOM     18  C6   11 d          -5.568 210.310 115.725  0.00  0.00     0.021 A 
ATOM     19  C7   11 d          -6.728 210.278 114.937  0.00  0.00     0.031 A 
ENDBRANCH  11  13
ENDBRANCH   1  11
TORSDOF 3
ENDMDL
MODEL 11
REMARK VINA RESULT:      -6.5      5.122      6.326
REMARK  3 active torsions:
REMARK  status: ('A' for Active; 'I' for Inactive)
REMARK    1  A    between atoms: C1_1  and  S1_2 
REMARK    2  A    between atoms: S1_2  and  N1_5 
REMARK    3  A    between atoms: N1_5  and  C2_6 
ROOT
ATOM      1  S1   11 d          -8.562 209.090 113.197  0.00  0.00     0.263 S 
ATOM      2  O1   11 d          -7.929 209.828 112.014  0.00  0.00    -0.200 OA
ATOM      3  O2   11 d          -9.012 210.153 114.203  0.00  0.00    -0.200 OA
ENDROOT
BRANCH   1   4
ATOM      4  C1   11 d         -10.003 208.167 112.645  0.00  0.00     0.080 A 
ATOM      5  C8   11 d         -10.830 207.499 113.566  0.00  0.00     0.026 A 
ATOM      6  C9   11 d         -11.950 206.782 113.116  0.00  0.00     0.020 A 
ATOM      7  C10  11 d         -12.245 206.725 111.746  0.00  0.00     0.011 A 
ATOM      8 Br2   11 d         -13.778 205.733 111.129  0.00  0.00    -0.051 Br
ATOM      9  C11  11 d         -11.423 207.392 110.824  0.00  0.00     0.020 A 
ATOM     10  C12  11 d         -10.306 208.114 111.273  0.00  0.00     0.026 A 
ENDBRANCH   1   4
BRANCH   1  11
ATOM     11  N1   11 d          -7.402 208.091 113.908  0.00  0.00    -0.281 N 
ATOM     12  H1   11 d          -7.736 207.446 114.586  0.00  0.00     0.179 HD
BRANCH  11  13
ATOM     13  C2   11 d          -6.043 208.111 113.605  0.00  0.00     0.042 A 
ATOM     14  C3   11 d          -5.114 208.038 114.666  0.00  0.00     0.031 A 
ATOM     15  C4   11 d          -3.733 208.036 114.417  0.00  0.00     0.021 A 
ATOM     16  C5   11 d          -3.256 208.112 113.102  0.00  0.00     0.011 A 
ATOM     17 Br1   11 d          -1.359 208.104 112.759  0.00  0.00    -0.051 Br
ATOM     18  C6   11 d          -4.163 208.191 112.036  0.00  0.00     0.021 A 
ATOM     19  C7   11 d          -5.544 208.188 112.283  0.00  0.00     0.031 A 
ENDBRANCH  11  13
ENDBRANCH   1  11
TORSDOF 3
ENDMDL
MODEL 12
REMARK VINA RESULT:      -6.4      4.618      5.301
REMARK  3 active torsions:
REMARK  status: ('A' for Active; 'I' for Inactive)
REMARK    1  A    between atoms: C1_1  and  S1_2 
REMARK    2  A    between atoms: S1_2  and  N1_5 
REMARK    3  A    between atoms: N1_5  and  C2_6 
ROOT
ATOM      1  S1   11 d         -12.747 207.239 118.156  0.00  0.00     0.263 S 
ATOM      2  O1   11 d         -13.712 207.489 119.319  0.00  0.00    -0.200 OA
ATOM      3  O2   11 d         -11.955 205.972 118.493  0.00  0.00    -0.200 OA
ENDROOT
BRANCH   1   4
ATOM      4  C1   11 d         -13.671 206.959 116.640  0.00  0.00     0.080 A 
ATOM      5  C8   11 d         -13.879 208.001 115.717  0.00  0.00     0.026 A 
ATOM      6  C9   11 d         -14.604 207.764 114.539  0.00  0.00     0.020 A 
ATOM      7  C10  11 d         -15.128 206.489 114.279  0.00  0.00     0.011 A 
ATOM      8 Br2   11 d         -16.131 206.167 112.665  0.00  0.00    -0.051 Br
ATOM      9  C11  11 d         -14.921 205.446 115.197  0.00  0.00     0.020 A 
ATOM     10  C12  11 d         -14.192 205.681 116.373  0.00  0.00     0.026 A 
ENDBRANCH   1   4
BRANCH   1  11
ATOM     11  N1   11 d         -11.692 208.549 118.025  0.00  0.00    -0.281 N 
ATOM     12  H1   11 d         -11.997 209.401 118.435  0.00  0.00     0.179 HD
BRANCH  11  13
ATOM     13  C2   11 d         -10.448 208.508 117.397  0.00  0.00     0.042 A 
ATOM     14  C3   11 d         -10.373 208.843 116.027  0.00  0.00     0.031 A 
ATOM     15  C4   11 d          -9.144 208.837 115.350  0.00  0.00     0.021 A 
ATOM     16  C5   11 d          -7.969 208.489 116.029  0.00  0.00     0.011 A 
ATOM     17 Br1   11 d          -6.280 208.484 115.100  0.00  0.00    -0.051 Br
ATOM     18  C6   11 d          -8.026 208.147 117.388  0.00  0.00     0.021 A 
ATOM     19  C7   11 d          -9.252 208.158 118.068  0.00  0.00     0.031 A 
ENDBRANCH  11  13
ENDBRANCH   1  11
TORSDOF 3
ENDMDL
MODEL 13
REMARK VINA RESULT:      -6.4      3.775      4.300
REMARK  3 active torsions:
REMARK  status: ('A' for Active; 'I' for Inactive)
REMARK    1  A    between atoms: C1_1  and  S1_2 
REMARK    2  A    between atoms: S1_2  and  N1_5 
REMARK    3  A    between atoms: N1_5  and  C2_6 
ROOT
ATOM      1  S1   11 d         -13.281 206.672 117.293  0.00  0.00     0.263 S 
ATOM      2  O1   11 d         -13.721 207.850 118.166  0.00  0.00    -0.200 OA
ATOM      3  O2   11 d         -13.619 205.390 118.060  0.00  0.00    -0.200 OA
ENDROOT
BRANCH   1   4
ATOM      4  C1   11 d         -14.195 206.679 115.745  0.00  0.00     0.080 A 
ATOM      5  C8   11 d         -14.499 207.887 115.090  0.00  0.00     0.026 A 
ATOM      6  C9   11 d         -15.216 207.873 113.883  0.00  0.00     0.020 A 
ATOM      7  C10  11 d         -15.635 206.655 113.328  0.00  0.00     0.011 A 
ATOM      8 Br2   11 d         -16.627 206.637 111.674  0.00  0.00    -0.051 Br
ATOM      9  C11  11 d         -15.333 205.447 113.978  0.00  0.00     0.020 A 
ATOM     10  C12  11 d         -14.612 205.460 115.182  0.00  0.00     0.026 A 
ENDBRANCH   1   4
BRANCH   1  11
ATOM     11  N1   11 d         -11.614 206.762 117.045  0.00  0.00    -0.281 N 
ATOM     12  H1   11 d         -11.044 206.352 117.749  0.00  0.00     0.179 HD
BRANCH  11  13
ATOM     13  C2   11 d         -11.005 207.353 115.940  0.00  0.00     0.042 A 
ATOM     14  C3   11 d         -10.194 208.491 116.147  0.00  0.00     0.031 A 
ATOM     15  C4   11 d          -9.542 209.115 115.073  0.00  0.00     0.021 A 
ATOM     16  C5   11 d          -9.695 208.618 113.772  0.00  0.00     0.011 A 
ATOM     17 Br1   11 d          -8.796 209.473 112.297  0.00  0.00    -0.051 Br
ATOM     18  C6   11 d         -10.502 207.494 113.547  0.00  0.00     0.021 A 
ATOM     19  C7   11 d         -11.150 206.865 114.620  0.00  0.00     0.031 A 
ENDBRANCH  11  13
ENDBRANCH   1  11
TORSDOF 3
ENDMDL
MODEL 14
REMARK VINA RESULT:      -6.4      6.232      8.903
REMARK  3 active torsions:
REMARK  status: ('A' for Active; 'I' for Inactive)
REMARK    1  A    between atoms: C1_1  and  S1_2 
REMARK    2  A    between atoms: S1_2  and  N1_5 
REMARK    3  A    between atoms: N1_5  and  C2_6 
ROOT
ATOM      1  S1   11 d          -6.268 209.247 115.883  0.00  0.00     0.263 S 
ATOM      2  O1   11 d          -6.676 207.906 116.498  0.00  0.00    -0.200 OA
ATOM      3  O2   11 d          -5.736 210.122 117.022  0.00  0.00    -0.200 OA
ENDROOT
BRANCH   1   4
ATOM      4  C1   11 d          -4.956 208.998 114.680  0.00  0.00     0.080 A 
ATOM      5  C8   11 d          -4.333 207.745 114.538  0.00  0.00     0.026 A 
ATOM      6  C9   11 d          -3.309 207.570 113.594  0.00  0.00     0.020 A 
ATOM      7  C10  11 d          -2.900 208.646 112.792  0.00  0.00     0.011 A 
ATOM      8 Br2   11 d          -1.487 208.406 111.502  0.00  0.00    -0.051 Br
ATOM      9  C11  11 d          -3.520 209.898 112.930  0.00  0.00     0.020 A 
ATOM     10  C12  11 d          -4.548 210.073 113.869  0.00  0.00     0.026 A 
ENDBRANCH   1   4
BRANCH   1  11
ATOM     11  N1   11 d          -7.628 209.975 115.197  0.00  0.00    -0.281 N 
ATOM     12  H1   11 d          -7.733 210.950 115.362  0.00  0.00     0.179 HD
BRANCH  11  13
ATOM     13  C2   11 d          -8.583 209.312 114.430  0.00  0.00     0.042 A 
ATOM     14  C3   11 d          -8.323 209.113 113.056  0.00  0.00     0.031 A 
ATOM     15  C4   11 d          -9.242 208.435 112.239  0.00  0.00     0.021 A 
ATOM     16  C5   11 d         -10.439 207.950 112.781  0.00  0.00     0.011 A 
ATOM     17 Br1   11 d         -11.699 207.015 111.661  0.00  0.00    -0.051 Br
ATOM     18  C6   11 d         -10.716 208.144 114.142  0.00  0.00     0.021 A 
ATOM     19  C7   11 d          -9.797 208.816 114.960  0.00  0.00     0.031 A 
ENDBRANCH  11  13
ENDBRANCH   1  11
TORSDOF 3
ENDMDL
MODEL 15
REMARK VINA RESULT:      -6.3      6.449      8.043
REMARK  3 active torsions:
REMARK  status: ('A' for Active; 'I' for Inactive)
REMARK    1  A    between atoms: C1_1  and  S1_2 
REMARK    2  A    between atoms: S1_2  and  N1_5 
REMARK    3  A    between atoms: N1_5  and  C2_6 
ROOT
ATOM      1  S1   11 d          -5.530 209.950 114.307  0.00  0.00     0.263 S 
ATOM      2  O1   11 d          -6.074 211.074 115.193  0.00  0.00    -0.200 OA
ATOM      3  O2   11 d          -4.187 210.427 113.747  0.00  0.00    -0.200 OA
ENDROOT
BRANCH   1   4
ATOM      4  C1   11 d          -5.256 208.470 115.291  0.00  0.00     0.080 A 
ATOM      5  C8   11 d          -4.320 207.499 114.892  0.00  0.00     0.026 A 
ATOM      6  C9   11 d          -4.121 206.349 115.672  0.00  0.00     0.020 A 
ATOM      7  C10  11 d          -4.858 206.163 116.851  0.00  0.00     0.011 A 
ATOM      8 Br2   11 d          -4.590 204.579 117.917  0.00  0.00    -0.051 Br
ATOM      9  C11  11 d          -5.793 207.130 117.253  0.00  0.00     0.020 A 
ATOM     10  C12  11 d          -5.988 208.283 116.477  0.00  0.00     0.026 A 
ENDBRANCH   1   4
BRANCH   1  11
ATOM     11  N1   11 d          -6.609 209.678 113.039  0.00  0.00    -0.281 N 
ATOM     12  H1   11 d          -6.272 209.879 112.126  0.00  0.00     0.179 HD
BRANCH  11  13
ATOM     13  C2   11 d          -7.907 209.194 113.189  0.00  0.00     0.042 A 
ATOM     14  C3   11 d          -8.562 209.395 114.424  0.00  0.00     0.031 A 
ATOM     15  C4   11 d          -9.877 208.946 114.625  0.00  0.00     0.021 A 
ATOM     16  C5   11 d         -10.557 208.281 113.596  0.00  0.00     0.011 A 
ATOM     17 Br1   11 d         -12.363 207.667 113.869  0.00  0.00    -0.051 Br
ATOM     18  C6   11 d          -9.920 208.067 112.365  0.00  0.00     0.021 A 
ATOM     19  C7   11 d          -8.609 208.520 112.161  0.00  0.00     0.031 A 
ENDBRANCH  11  13
ENDBRANCH   1  11
TORSDOF 3
ENDMDL
MODEL 16
REMARK VINA RESULT:      -6.2      7.170      8.729
REMARK  3 active torsions:
REMARK  status: ('A' for Active; 'I' for Inactive)
REMARK    1  A    between atoms: C1_1  and  S1_2 
REMARK    2  A    between atoms: S1_2  and  N1_5 
REMARK    3  A    between atoms: N1_5  and  C2_6 
ROOT
ATOM      1  S1   11 d          -5.786 209.460 115.054  0.00  0.00     0.263 S 
ATOM      2  O1   11 d          -5.032 210.186 113.937  0.00  0.00    -0.200 OA
ATOM      3  O2   11 d          -5.716 207.961 114.745  0.00  0.00    -0.200 OA
ENDROOT
BRANCH   1   4
ATOM      4  C1   11 d          -4.987 209.764 116.635  0.00  0.00     0.080 A 
ATOM      5  C8   11 d          -3.753 209.166 116.949  0.00  0.00     0.026 A 
ATOM      6  C9   11 d          -3.144 209.415 118.189  0.00  0.00     0.020 A 
ATOM      7  C10  11 d          -3.767 210.257 119.123  0.00  0.00     0.011 A 
ATOM      8 Br2   11 d          -2.935 210.590 120.829  0.00  0.00    -0.051 Br
ATOM      9  C11  11 d          -4.999 210.857 118.813  0.00  0.00     0.020 A 
ATOM     10  C12  11 d          -5.605 210.613 117.570  0.00  0.00     0.026 A 
ENDBRANCH   1   4
BRANCH   1  11
ATOM     11  N1   11 d          -7.397 209.965 115.050  0.00  0.00    -0.281 N 
ATOM     12  H1   11 d          -7.600 210.786 115.571  0.00  0.00     0.179 HD
BRANCH  11  13
ATOM     13  C2   11 d          -8.430 209.321 114.372  0.00  0.00     0.042 A 
ATOM     14  C3   11 d          -8.301 209.123 112.979  0.00  0.00     0.031 A 
ATOM     15  C4   11 d          -9.303 208.464 112.250  0.00  0.00     0.021 A 
ATOM     16  C5   11 d         -10.454 207.997 112.899  0.00  0.00     0.011 A 
ATOM     17 Br1   11 d         -11.827 207.088 111.898  0.00  0.00    -0.051 Br
ATOM     18  C6   11 d         -10.601 208.191 114.279  0.00  0.00     0.021 A 
ATOM     19  C7   11 d          -9.599 208.844 115.011  0.00  0.00     0.031 A 
ENDBRANCH  11  13
ENDBRANCH   1  11
TORSDOF 3
ENDMDL
MODEL 17
REMARK VINA RESULT:      -6.1      6.680      8.448
REMARK  3 active torsions:
REMARK  status: ('A' for Active; 'I' for Inactive)
REMARK    1  A    between atoms: C1_1  and  S1_2 
REMARK    2  A    between atoms: S1_2  and  N1_5 
REMARK    3  A    between atoms: N1_5  and  C2_6 
ROOT
ATOM      1  S1   11 d          -5.722 210.123 114.778  0.00  0.00     0.263 S 
ATOM      2  O1   11 d          -4.646 210.362 113.715  0.00  0.00    -0.200 OA
ATOM      3  O2   11 d          -6.087 211.489 115.365  0.00  0.00    -0.200 OA
ENDROOT
BRANCH   1   4
ATOM      4  C1   11 d          -7.187 209.407 114.020  0.00  0.00     0.080 A 
ATOM      5  C8   11 d          -7.144 208.884 112.714  0.00  0.00     0.026 A 
ATOM      6  C9   11 d          -8.298 208.330 112.139  0.00  0.00     0.020 A 
ATOM      7  C10  11 d          -9.500 208.300 112.862  0.00  0.00     0.011 A 
ATOM      8 Br2   11 d         -11.087 207.547 112.067  0.00  0.00    -0.051 Br
ATOM      9  C11  11 d          -9.547 208.820 114.166  0.00  0.00     0.020 A 
ATOM     10  C12  11 d          -8.392 209.369 114.744  0.00  0.00     0.026 A 
ENDBRANCH   1   4
BRANCH   1  11
ATOM     11  N1   11 d          -5.088 209.136 115.991  0.00  0.00    -0.281 N 
ATOM     12  H1   11 d          -4.150 208.832 115.863  0.00  0.00     0.179 HD
BRANCH  11  13
ATOM     13  C2   11 d          -5.779 208.736 117.133  0.00  0.00     0.042 A 
ATOM     14  C3   11 d          -6.325 207.434 117.169  0.00  0.00     0.031 A 
ATOM     15  C4   11 d          -7.014 206.974 118.302  0.00  0.00     0.021 A 
ATOM     16  C5   11 d          -7.176 207.809 119.415  0.00  0.00     0.011 A 
ATOM     17 Br1   11 d          -8.119 207.175 120.972  0.00  0.00    -0.051 Br
ATOM     18  C6   11 d          -6.646 209.107 119.393  0.00  0.00     0.021 A 
ATOM     19  C7   11 d          -5.952 209.567 118.265  0.00  0.00     0.031 A 
ENDBRANCH  11  13
ENDBRANCH   1  11
TORSDOF 3
ENDMDL
MODEL 18
REMARK VINA RESULT:      -6.1      4.240      7.170
REMARK  3 active torsions:
REMARK  status: ('A' for Active; 'I' for Inactive)
REMARK    1  A    between atoms: C1_1  and  S1_2 
REMARK    2  A    between atoms: S1_2  and  N1_5 
REMARK    3  A    between atoms: N1_5  and  C2_6 
ROOT
ATOM      1  S1   11 d         -12.383 207.324 116.335  0.00  0.00     0.263 S 
ATOM      2  O1   11 d         -11.586 206.044 116.600  0.00  0.00    -0.200 OA
ATOM      3  O2   11 d         -11.368 208.443 116.084  0.00  0.00    -0.200 OA
ENDROOT
BRANCH   1   4
ATOM      4  C1   11 d         -13.401 207.123 114.867  0.00  0.00     0.080 A 
ATOM      5  C8   11 d         -14.763 206.787 114.971  0.00  0.00     0.026 A 
ATOM      6  C9   11 d         -15.542 206.633 113.813  0.00  0.00     0.020 A 
ATOM      7  C10  11 d         -14.962 206.809 112.548  0.00  0.00     0.011 A 
ATOM      8 Br2   11 d         -16.030 206.587 110.958  0.00  0.00    -0.051 Br
ATOM      9  C11  11 d         -13.603 207.145 112.439  0.00  0.00     0.020 A 
ATOM     10  C12  11 d         -12.826 207.305 113.597  0.00  0.00     0.026 A 
ENDBRANCH   1   4
BRANCH   1  11
ATOM     11  N1   11 d         -13.305 207.691 117.701  0.00  0.00    -0.281 N 
ATOM     12  H1   11 d         -13.420 208.657 117.905  0.00  0.00     0.179 HD
BRANCH  11  13
ATOM     13  C2   11 d         -13.904 206.747 118.533  0.00  0.00     0.042 A 
ATOM     14  C3   11 d         -14.452 207.182 119.759  0.00  0.00     0.031 A 
ATOM     15  C4   11 d         -15.083 206.278 120.627  0.00  0.00     0.021 A 
ATOM     16  C5   11 d         -15.171 204.921 120.287  0.00  0.00     0.011 A 
ATOM     17 Br1   11 d         -16.042 203.680 121.477  0.00  0.00    -0.051 Br
ATOM     18  C6   11 d         -14.627 204.471 119.076  0.00  0.00     0.021 A 
ATOM     19  C7   11 d         -14.000 205.374 118.205  0.00  0.00     0.031 A 
ENDBRANCH  11  13
ENDBRANCH   1  11
TORSDOF 3
ENDMDL
MODEL 19
REMARK VINA RESULT:      -6.1      6.558     10.098
REMARK  3 active torsions:
REMARK  status: ('A' for Active; 'I' for Inactive)
REMARK    1  A    between atoms: C1_1  and  S1_2 
REMARK    2  A    between atoms: S1_2  and  N1_5 
REMARK    3  A    between atoms: N1_5  and  C2_6 
ROOT
ATOM      1  S1   11 d         -16.597 202.832 118.683  0.00  0.00     0.263 S 
ATOM      2  O1   11 d         -16.799 201.996 117.417  0.00  0.00    -0.200 OA
ATOM      3  O2   11 d         -16.285 201.857 119.822  0.00  0.00    -0.200 OA
ENDROOT
BRANCH   1   4
ATOM      4  C1   11 d         -15.199 203.942 118.471  0.00  0.00     0.080 A 
ATOM      5  C8   11 d         -14.536 204.043 117.234  0.00  0.00     0.026 A 
ATOM      6  C9   11 d         -13.445 204.914 117.088  0.00  0.00     0.020 A 
ATOM      7  C10  11 d         -13.010 205.685 118.176  0.00  0.00     0.011 A 
ATOM      8 Br2   11 d         -11.506 206.875 117.976  0.00  0.00    -0.051 Br
ATOM      9  C11  11 d         -13.669 205.589 119.412  0.00  0.00     0.020 A 
ATOM     10  C12  11 d         -14.763 204.722 119.557  0.00  0.00     0.026 A 
ENDBRANCH   1   4
BRANCH   1  11
ATOM     11  N1   11 d         -18.023 203.666 119.026  0.00  0.00    -0.281 N 
ATOM     12  H1   11 d         -18.533 204.003 118.242  0.00  0.00     0.179 HD
BRANCH  11  13
ATOM     13  C2   11 d         -18.520 203.899 120.307  0.00  0.00     0.042 A 
ATOM     14  C3   11 d         -17.877 204.863 121.114  0.00  0.00     0.031 A 
ATOM     15  C4   11 d         -18.346 205.150 122.406  0.00  0.00     0.021 A 
ATOM     16  C5   11 d         -19.462 204.474 122.915  0.00  0.00     0.011 A 
ATOM     17 Br1   11 d         -20.109 204.872 124.686  0.00  0.00    -0.051 Br
ATOM     18  C6   11 d         -20.109 203.509 122.130  0.00  0.00     0.021 A 
ATOM     19  C7   11 d         -19.645 203.225 120.837  0.00  0.00     0.031 A 
ENDBRANCH  11  13
ENDBRANCH   1  11
TORSDOF 3
ENDMDL
MODEL 20
REMARK VINA RESULT:      -6.1      4.136      4.731
REMARK  3 active torsions:
REMARK  status: ('A' for Active; 'I' for Inactive)
REMARK    1  A    between atoms: C1_1  and  S1_2 
REMARK    2  A    between atoms: S1_2  and  N1_5 
REMARK    3  A    between atoms: N1_5  and  C2_6 
ROOT
ATOM      1  S1   11 d         -11.488 207.351 117.605  0.00  0.00     0.263 S 
ATOM      2  O1   11 d         -11.430 208.345 118.768  0.00  0.00    -0.200 OA
ATOM      3  O2   11 d         -10.131 206.643 117.548  0.00  0.00    -0.200 OA
ENDROOT
BRANCH   1   4
ATOM      4  C1   11 d         -12.769 206.127 117.906  0.00  0.00     0.080 A 
ATOM      5  C8   11 d         -13.390 206.024 119.164  0.00  0.00     0.026 A 
ATOM      6  C9   11 d         -14.388 205.060 119.380  0.00  0.00     0.020 A 
ATOM      7  C10  11 d         -14.765 204.193 118.344  0.00  0.00     0.011 A 
ATOM      8 Br2   11 d         -16.129 202.864 118.646  0.00  0.00    -0.051 Br
ATOM      9  C11  11 d         -14.148 204.293 117.087  0.00  0.00     0.020 A 
ATOM     10  C12  11 d         -13.155 205.260 116.868  0.00  0.00     0.026 A 
ENDBRANCH   1   4
BRANCH   1  11
ATOM     11  N1   11 d         -11.745 208.199 116.168  0.00  0.00    -0.281 N 
ATOM     12  H1   11 d         -12.620 208.662 116.083  0.00  0.00     0.179 HD
BRANCH  11  13
ATOM     13  C2   11 d         -10.827 208.292 115.124  0.00  0.00     0.042 A 
ATOM     14  C3   11 d          -9.639 209.026 115.336  0.00  0.00     0.031 A 
ATOM     15  C4   11 d          -8.671 209.137 114.326  0.00  0.00     0.021 A 
ATOM     16  C5   11 d          -8.876 208.522 113.084  0.00  0.00     0.011 A 
ATOM     17 Br1   11 d          -7.545 208.670 111.698  0.00  0.00    -0.051 Br
ATOM     18  C6   11 d         -10.053 207.795 112.854  0.00  0.00     0.021 A 
ATOM     19  C7   11 d         -11.019 207.678 113.864  0.00  0.00     0.031 A 
ENDBRANCH  11  13
ENDBRANCH   1  11
TORSDOF 3
ENDMDL
