MODEL 1
REMARK VINA RESULT:      -9.3      0.000      0.000
REMARK  5 active torsions:
REMARK  status: ('A' for Active; 'I' for Inactive)
REMARK    1  A    between atoms: C16_18  and  C17_19 
REMARK    2  A    between atoms: C17_19  and  O4_21 
REMARK    3  A    between atoms: N1_25  and  C22_28 
REMARK    4  A    between atoms: C22_28  and  C23_29 
REMARK    5  A    between atoms: C23_29  and  C24_30 
ROOT
ATOM      1  C1   11 d          14.336  40.468  29.853  0.00  0.00     0.156 A 
ATOM      2  C2   11 d          13.949  41.758  30.154  0.00  0.00     0.060 A 
ATOM      3  C3   11 d          13.294  41.995  31.372  0.00  0.00     0.196 A 
ATOM      4  C4   11 d          13.021  40.896  32.223  0.00  0.00     0.049 A 
ATOM      5  C5   11 d          13.434  39.603  31.797  0.00  0.00     0.091 A 
ATOM      6  O1   11 d          14.075  39.446  30.649  0.00  0.00    -0.303 OA
ATOM      7  C6   11 d          13.153  38.485  32.590  0.00  0.00     0.045 A 
ATOM      8  C7   11 d          12.452  38.616  33.805  0.00  0.00    -0.053 A 
ATOM      9  C8   11 d          12.099  39.911  34.271  0.00  0.00    -0.055 A 
ATOM     10  C9   11 d          12.357  41.034  33.457  0.00  0.00     0.025 A 
ATOM     11  C10  11 d          11.298  40.112  35.535  0.00  0.00     0.049 C 
ATOM     12  C11  11 d          12.249  37.380  34.650  0.00  0.00     0.049 C 
ATOM     13  O2   11 d          12.961  43.165  31.690  0.00  0.00    -0.287 OA
ATOM     14  C12  11 d          14.317  42.728  29.050  0.00  0.00     0.161 A 
ATOM     15  C13  11 d          13.141  43.425  28.362  0.00  0.00    -0.030 A 
ATOM     16  C14  11 d          13.402  44.392  27.369  0.00  0.00     0.011 A 
ATOM     17  C15  11 d          12.359  45.022  26.673  0.00  0.00     0.018 A 
ATOM     18  C16  11 d          11.016  44.705  26.952  0.00  0.00     0.039 A 
ATOM     19  C19  11 d          10.744  43.775  27.972  0.00  0.00     0.018 A 
ATOM     20  C20  11 d          11.787  43.151  28.673  0.00  0.00     0.011 A 
ATOM     21  N1   11 d          15.088  41.835  28.100  0.00  0.00    -0.333 N 
ATOM     22  C21  11 d          15.000  40.492  28.565  0.00  0.00     0.279 A 
ATOM     23  O5   11 d          15.427  39.455  27.948  0.00  0.00    -0.265 OA
ENDROOT
BRANCH  21  24
ATOM     24  C22  11 d          15.816  42.336  26.883  0.00  0.00     0.132 C 
BRANCH  24  25
ATOM     25  C23  11 d          15.071  42.223  25.544  0.00  0.00     0.058 C 
BRANCH  25  26
ATOM     26  C24  11 d          15.331  43.310  24.515  0.00  0.00    -0.057 A 
ATOM     27  C25  11 d          16.660  43.762  24.359  0.00  0.00     0.007 A 
ATOM     28  C26  11 d          16.987  44.720  23.389  0.00  0.00     0.001 A 
ATOM     29  C27  11 d          15.992  45.228  22.543  0.00  0.00     0.000 A 
ATOM     30  C28  11 d          14.673  44.772  22.664  0.00  0.00     0.001 A 
ATOM     31  C29  11 d          14.344  43.813  23.634  0.00  0.00     0.007 A 
ENDBRANCH  25  26
ENDBRANCH  24  25
ENDBRANCH  21  24
BRANCH  18  32
ATOM     32  C17  11 d           9.904  45.314  26.172  0.00  0.00     0.292 C 
ATOM     33  O3   11 d          10.120  45.757  25.011  0.00  0.00    -0.259 OA
BRANCH  32  34
ATOM     34  O4   11 d           8.606  45.432  26.769  0.00  0.00    -0.323 OA
ATOM     35  C18  11 d           7.978  46.722  26.553  0.00  0.00     0.213 C 
ENDBRANCH  32  34
ENDBRANCH  18  32
TORSDOF 5
ENDMDL
MODEL 2
REMARK VINA RESULT:      -8.9      5.017      9.459
REMARK  5 active torsions:
REMARK  status: ('A' for Active; 'I' for Inactive)
REMARK    1  A    between atoms: C16_18  and  C17_19 
REMARK    2  A    between atoms: C17_19  and  O4_21 
REMARK    3  A    between atoms: N1_25  and  C22_28 
REMARK    4  A    between atoms: C22_28  and  C23_29 
REMARK    5  A    between atoms: C23_29  and  C24_30 
ROOT
ATOM      1  C1   11 d          10.157  45.179  27.751  0.00  0.00     0.156 A 
ATOM      2  C2   11 d           9.245  45.666  26.838  0.00  0.00     0.060 A 
ATOM      3  C3   11 d           9.642  45.802  25.500  0.00  0.00     0.196 A 
ATOM      4  C4   11 d          10.975  45.474  25.149  0.00  0.00     0.049 A 
ATOM      5  C5   11 d          11.843  45.015  26.178  0.00  0.00     0.091 A 
ATOM      6  O1   11 d          11.401  44.879  27.419  0.00  0.00    -0.303 OA
ATOM      7  C6   11 d          13.177  44.713  25.883  0.00  0.00     0.045 A 
ATOM      8  C7   11 d          13.684  44.872  24.577  0.00  0.00    -0.053 A 
ATOM      9  C8   11 d          12.805  45.261  23.530  0.00  0.00    -0.055 A 
ATOM     10  C9   11 d          11.468  45.593  23.834  0.00  0.00     0.025 A 
ATOM     11  C10  11 d          13.300  45.503  22.124  0.00  0.00     0.049 C 
ATOM     12  C11  11 d          15.111  44.456  24.310  0.00  0.00     0.049 C 
ATOM     13  O2   11 d           8.822  46.209  24.637  0.00  0.00    -0.287 OA
ATOM     14  C12  11 d           7.914  45.985  27.488  0.00  0.00     0.161 A 
ATOM     15  C13  11 d           7.490  47.455  27.439  0.00  0.00    -0.030 A 
ATOM     16  C14  11 d           6.233  47.824  27.964  0.00  0.00     0.011 A 
ATOM     17  C15  11 d           5.819  49.164  27.989  0.00  0.00     0.018 A 
ATOM     18  C16  11 d           6.653  50.182  27.485  0.00  0.00     0.039 A 
ATOM     19  C19  11 d           7.888  49.820  26.919  0.00  0.00     0.018 A 
ATOM     20  C20  11 d           8.298  48.478  26.887  0.00  0.00     0.011 A 
ATOM     21  N1   11 d           8.140  45.502  28.906  0.00  0.00    -0.333 N 
ATOM     22  C21  11 d           9.504  45.116  29.043  0.00  0.00     0.279 A 
ATOM     23  O5   11 d          10.081  44.774  30.134  0.00  0.00    -0.265 OA
ENDROOT
BRANCH  21  24
ATOM     24  C22  11 d           7.065  45.451  29.955  0.00  0.00     0.132 C 
BRANCH  24  25
ATOM     25  C23  11 d           7.344  46.212  31.261  0.00  0.00     0.058 C 
BRANCH  25  26
ATOM     26  C24  11 d           7.530  47.716  31.159  0.00  0.00    -0.057 A 
ATOM     27  C25  11 d           6.473  48.539  31.605  0.00  0.00     0.007 A 
ATOM     28  C26  11 d           6.595  49.936  31.597  0.00  0.00     0.001 A 
ATOM     29  C27  11 d           7.785  50.533  31.161  0.00  0.00     0.000 A 
ATOM     30  C28  11 d           8.854  49.733  30.741  0.00  0.00     0.001 A 
ATOM     31  C29  11 d           8.736  48.334  30.748  0.00  0.00     0.007 A 
ENDBRANCH  25  26
ENDBRANCH  24  25
ENDBRANCH  21  24
BRANCH  18  32
ATOM     32  C17  11 d           6.255  51.614  27.571  0.00  0.00     0.292 C 
ATOM     33  O3   11 d           6.225  52.192  28.693  0.00  0.00    -0.259 OA
BRANCH  32  34
ATOM     34  O4   11 d           5.865  52.311  26.381  0.00  0.00    -0.323 OA
ATOM     35  C18  11 d           4.554  51.937  25.887  0.00  0.00     0.213 C 
ENDBRANCH  32  34
ENDBRANCH  18  32
TORSDOF 5
ENDMDL
MODEL 3
REMARK VINA RESULT:      -8.6      2.351      8.417
REMARK  5 active torsions:
REMARK  status: ('A' for Active; 'I' for Inactive)
REMARK    1  A    between atoms: C16_18  and  C17_19 
REMARK    2  A    between atoms: C17_19  and  O4_21 
REMARK    3  A    between atoms: N1_25  and  C22_28 
REMARK    4  A    between atoms: C22_28  and  C23_29 
REMARK    5  A    between atoms: C23_29  and  C24_30 
ROOT
ATOM      1  C1   11 d          14.816  41.232  27.201  0.00  0.00     0.156 A 
ATOM      2  C2   11 d          13.566  41.433  27.748  0.00  0.00     0.060 A 
ATOM      3  C3   11 d          12.754  42.444  27.213  0.00  0.00     0.196 A 
ATOM      4  C4   11 d          13.266  43.243  26.161  0.00  0.00     0.049 A 
ATOM      5  C5   11 d          14.583  42.971  25.697  0.00  0.00     0.091 A 
ATOM      6  O1   11 d          15.291  41.983  26.222  0.00  0.00    -0.303 OA
ATOM      7  C6   11 d          15.142  43.759  24.684  0.00  0.00     0.045 A 
ATOM      8  C7   11 d          14.424  44.833  24.122  0.00  0.00    -0.053 A 
ATOM      9  C8   11 d          13.082  45.065  24.530  0.00  0.00    -0.055 A 
ATOM     10  C9   11 d          12.530  44.290  25.571  0.00  0.00     0.025 A 
ATOM     11  C10  11 d          12.282  46.234  24.007  0.00  0.00     0.049 C 
ATOM     12  C11  11 d          15.054  45.594  22.980  0.00  0.00     0.049 C 
ATOM     13  O2   11 d          11.595  42.628  27.667  0.00  0.00    -0.287 OA
ATOM     14  C12  11 d          13.291  40.477  28.890  0.00  0.00     0.161 A 
ATOM     15  C13  11 d          13.077  41.127  30.259  0.00  0.00    -0.030 A 
ATOM     16  C14  11 d          12.751  40.309  31.363  0.00  0.00     0.011 A 
ATOM     17  C15  11 d          12.596  40.850  32.649  0.00  0.00     0.018 A 
ATOM     18  C16  11 d          12.760  42.230  32.871  0.00  0.00     0.039 A 
ATOM     19  C19  11 d          13.040  43.060  31.770  0.00  0.00     0.018 A 
ATOM     20  C20  11 d          13.188  42.520  30.484  0.00  0.00     0.011 A 
ATOM     21  N1   11 d          14.525  39.598  28.860  0.00  0.00    -0.333 N 
ATOM     22  C21  11 d          15.440  40.132  27.908  0.00  0.00     0.279 A 
ATOM     23  O5   11 d          16.635  39.721  27.705  0.00  0.00    -0.265 OA
ENDROOT
BRANCH  21  24
ATOM     24  C22  11 d          14.701  38.372  29.711  0.00  0.00     0.132 C 
BRANCH  24  25
ATOM     25  C23  11 d          16.037  38.242  30.460  0.00  0.00     0.058 C 
BRANCH  25  26
ATOM     26  C24  11 d          15.970  38.077  31.969  0.00  0.00    -0.057 A 
ATOM     27  C25  11 d          14.764  37.594  32.523  0.00  0.00     0.007 A 
ATOM     28  C26  11 d          14.647  37.360  33.901  0.00  0.00     0.001 A 
ATOM     29  C27  11 d          15.742  37.586  34.745  0.00  0.00     0.000 A 
ATOM     30  C28  11 d          16.954  38.039  34.210  0.00  0.00     0.001 A 
ATOM     31  C29  11 d          17.075  38.273  32.832  0.00  0.00     0.007 A 
ENDBRANCH  25  26
ENDBRANCH  24  25
ENDBRANCH  21  24
BRANCH  18  32
ATOM     32  C17  11 d          12.667  42.805  34.242  0.00  0.00     0.292 C 
ATOM     33  O3   11 d          12.920  42.082  35.245  0.00  0.00    -0.259 OA
BRANCH  32  34
ATOM     34  O4   11 d          12.244  44.164  34.410  0.00  0.00    -0.323 OA
ATOM     35  C18  11 d          13.272  45.034  34.949  0.00  0.00     0.213 C 
ENDBRANCH  32  34
ENDBRANCH  18  32
TORSDOF 5
ENDMDL
MODEL 4
REMARK VINA RESULT:      -8.4      2.406      8.736
REMARK  5 active torsions:
REMARK  status: ('A' for Active; 'I' for Inactive)
REMARK    1  A    between atoms: C16_18  and  C17_19 
REMARK    2  A    between atoms: C17_19  and  O4_21 
REMARK    3  A    between atoms: N1_25  and  C22_28 
REMARK    4  A    between atoms: C22_28  and  C23_29 
REMARK    5  A    between atoms: C23_29  and  C24_30 
ROOT
ATOM      1  C1   11 d          11.181  44.888  25.732  0.00  0.00     0.156 A 
ATOM      2  C2   11 d          12.009  44.919  26.835  0.00  0.00     0.060 A 
ATOM      3  C3   11 d          13.390  44.769  26.641  0.00  0.00     0.196 A 
ATOM      4  C4   11 d          13.873  44.549  25.328  0.00  0.00     0.049 A 
ATOM      5  C5   11 d          12.926  44.499  24.268  0.00  0.00     0.091 A 
ATOM      6  O1   11 d          11.636  44.677  24.509  0.00  0.00    -0.303 OA
ATOM      7  C6   11 d          13.355  44.249  22.960  0.00  0.00     0.045 A 
ATOM      8  C7   11 d          14.718  44.030  22.673  0.00  0.00    -0.053 A 
ATOM      9  C8   11 d          15.677  44.149  23.715  0.00  0.00    -0.055 A 
ATOM     10  C9   11 d          15.240  44.372  25.038  0.00  0.00     0.025 A 
ATOM     11  C10  11 d          17.143  43.870  23.483  0.00  0.00     0.049 C 
ATOM     12  C11  11 d          15.123  43.842  21.231  0.00  0.00     0.049 C 
ATOM     13  O2   11 d          14.175  44.830  27.623  0.00  0.00    -0.287 OA
ATOM     14  C12  11 d          11.230  45.116  28.119  0.00  0.00     0.161 A 
ATOM     15  C13  11 d          11.317  43.968  29.127  0.00  0.00    -0.030 A 
ATOM     16  C14  11 d          10.672  44.101  30.376  0.00  0.00     0.011 A 
ATOM     17  C15  11 d          10.679  43.058  31.314  0.00  0.00     0.018 A 
ATOM     18  C16  11 d          11.336  41.845  31.033  0.00  0.00     0.039 A 
ATOM     19  C19  11 d          12.019  41.718  29.810  0.00  0.00     0.018 A 
ATOM     20  C20  11 d          12.018  42.764  28.875  0.00  0.00     0.011 A 
ATOM     21  N1   11 d           9.821  45.313  27.597  0.00  0.00    -0.333 N 
ATOM     22  C21  11 d           9.821  45.083  26.192  0.00  0.00     0.279 A 
ATOM     23  O5   11 d           8.785  45.041  25.440  0.00  0.00    -0.265 OA
ENDROOT
BRANCH  21  24
ATOM     24  C22  11 d           8.653  45.697  28.462  0.00  0.00     0.132 C 
BRANCH  24  25
ATOM     25  C23  11 d           8.676  47.115  29.055  0.00  0.00     0.058 C 
BRANCH  25  26
ATOM     26  C24  11 d           8.178  48.243  28.168  0.00  0.00    -0.057 A 
ATOM     27  C25  11 d           7.524  49.329  28.792  0.00  0.00     0.007 A 
ATOM     28  C26  11 d           7.090  50.434  28.046  0.00  0.00     0.001 A 
ATOM     29  C27  11 d           7.320  50.480  26.665  0.00  0.00     0.000 A 
ATOM     30  C28  11 d           7.991  49.426  26.032  0.00  0.00     0.001 A 
ATOM     31  C29  11 d           8.427  48.319  26.777  0.00  0.00     0.007 A 
ENDBRANCH  25  26
ENDBRANCH  24  25
ENDBRANCH  21  24
BRANCH  18  32
ATOM     32  C17  11 d          11.290  40.705  31.991  0.00  0.00     0.292 C 
ATOM     33  O3   11 d          10.319  40.594  32.789  0.00  0.00    -0.259 OA
BRANCH  32  34
ATOM     34  O4   11 d          12.376  39.771  32.028  0.00  0.00    -0.323 OA
ATOM     35  C18  11 d          12.929  39.569  33.354  0.00  0.00     0.213 C 
ENDBRANCH  32  34
ENDBRANCH  18  32
TORSDOF 5
ENDMDL
MODEL 5
REMARK VINA RESULT:      -8.4      2.195      9.466
REMARK  5 active torsions:
REMARK  status: ('A' for Active; 'I' for Inactive)
REMARK    1  A    between atoms: C16_18  and  C17_19 
REMARK    2  A    between atoms: C17_19  and  O4_21 
REMARK    3  A    between atoms: N1_25  and  C22_28 
REMARK    4  A    between atoms: C22_28  and  C23_29 
REMARK    5  A    between atoms: C23_29  and  C24_30 
ROOT
ATOM      1  C1   11 d          11.687  43.427  29.441  0.00  0.00     0.156 A 
ATOM      2  C2   11 d          12.991  43.068  29.715  0.00  0.00     0.060 A 
ATOM      3  C3   11 d          13.949  43.191  28.698  0.00  0.00     0.196 A 
ATOM      4  C4   11 d          13.531  43.637  27.420  0.00  0.00     0.049 A 
ATOM      5  C5   11 d          12.155  43.946  27.238  0.00  0.00     0.091 A 
ATOM      6  O1   11 d          11.302  43.839  28.245  0.00  0.00    -0.303 OA
ATOM      7  C6   11 d          11.692  44.357  25.982  0.00  0.00     0.045 A 
ATOM      8  C7   11 d          12.570  44.457  24.884  0.00  0.00    -0.053 A 
ATOM      9  C8   11 d          13.958  44.219  25.076  0.00  0.00    -0.055 A 
ATOM     10  C9   11 d          14.418  43.777  26.334  0.00  0.00     0.025 A 
ATOM     11  C10  11 d          14.938  44.255  23.927  0.00  0.00     0.049 C 
ATOM     12  C11  11 d          12.022  44.979  23.577  0.00  0.00     0.049 C 
ATOM     13  O2   11 d          15.152  42.906  28.928  0.00  0.00    -0.287 OA
ATOM     14  C12  11 d          13.152  42.578  31.139  0.00  0.00     0.161 A 
ATOM     15  C13  11 d          13.600  41.122  31.290  0.00  0.00    -0.030 A 
ATOM     16  C14  11 d          13.836  40.607  32.583  0.00  0.00     0.011 A 
ATOM     17  C15  11 d          14.198  39.266  32.778  0.00  0.00     0.018 A 
ATOM     18  C16  11 d          14.339  38.394  31.682  0.00  0.00     0.039 A 
ATOM     19  C19  11 d          14.150  38.908  30.386  0.00  0.00     0.018 A 
ATOM     20  C20  11 d          13.795  40.251  30.191  0.00  0.00     0.011 A 
ATOM     21  N1   11 d          11.765  42.811  31.704  0.00  0.00    -0.333 N 
ATOM     22  C21  11 d          10.908  43.229  30.646  0.00  0.00     0.279 A 
ATOM     23  O5   11 d           9.642  43.398  30.730  0.00  0.00    -0.265 OA
ENDROOT
BRANCH  21  24
ATOM     24  C22  11 d          11.408  42.624  33.152  0.00  0.00     0.132 C 
BRANCH  24  25
ATOM     25  C23  11 d          10.368  41.537  33.468  0.00  0.00     0.058 C 
BRANCH  25  26
ATOM     26  C24  11 d          10.845  40.337  34.268  0.00  0.00    -0.057 A 
ATOM     27  C25  11 d          10.598  39.053  33.734  0.00  0.00     0.007 A 
ATOM     28  C26  11 d          11.061  37.901  34.386  0.00  0.00     0.001 A 
ATOM     29  C27  11 d          11.795  38.015  35.574  0.00  0.00     0.000 A 
ATOM     30  C28  11 d          12.074  39.281  36.104  0.00  0.00     0.001 A 
ATOM     31  C29  11 d          11.613  40.436  35.453  0.00  0.00     0.007 A 
ENDBRANCH  25  26
ENDBRANCH  24  25
ENDBRANCH  21  24
BRANCH  18  32
ATOM     32  C17  11 d          14.653  36.952  31.881  0.00  0.00     0.292 C 
ATOM     33  O3   11 d          13.844  36.213  32.507  0.00  0.00    -0.259 OA
BRANCH  32  34
ATOM     34  O4   11 d          15.897  36.429  31.399  0.00  0.00    -0.323 OA
ATOM     35  C18  11 d          16.359  35.258  32.121  0.00  0.00     0.213 C 
ENDBRANCH  32  34
ENDBRANCH  18  32
TORSDOF 5
ENDMDL
MODEL 6
REMARK VINA RESULT:      -8.1      2.865      7.995
REMARK  5 active torsions:
REMARK  status: ('A' for Active; 'I' for Inactive)
REMARK    1  A    between atoms: C16_18  and  C17_19 
REMARK    2  A    between atoms: C17_19  and  O4_21 
REMARK    3  A    between atoms: N1_25  and  C22_28 
REMARK    4  A    between atoms: C22_28  and  C23_29 
REMARK    5  A    between atoms: C23_29  and  C24_30 
ROOT
ATOM      1  C1   11 d          13.803  41.588  28.913  0.00  0.00     0.156 A 
ATOM      2  C2   11 d          12.484  41.985  28.836  0.00  0.00     0.060 A 
ATOM      3  C3   11 d          12.077  42.750  27.732  0.00  0.00     0.196 A 
ATOM      4  C4   11 d          13.044  43.118  26.765  0.00  0.00     0.049 A 
ATOM      5  C5   11 d          14.384  42.684  26.963  0.00  0.00     0.091 A 
ATOM      6  O1   11 d          14.702  41.938  28.010  0.00  0.00    -0.303 OA
ATOM      7  C6   11 d          15.379  43.054  26.050  0.00  0.00     0.045 A 
ATOM      8  C7   11 d          15.077  43.867  24.939  0.00  0.00    -0.053 A 
ATOM      9  C8   11 d          13.729  44.245  24.697  0.00  0.00    -0.055 A 
ATOM     10  C9   11 d          12.732  43.895  25.633  0.00  0.00     0.025 A 
ATOM     11  C10  11 d          13.351  45.161  23.558  0.00  0.00     0.049 C 
ATOM     12  C11  11 d          16.180  44.166  23.952  0.00  0.00     0.049 C 
ATOM     13  O2   11 d          10.873  43.097  27.616  0.00  0.00    -0.287 OA
ATOM     14  C12  11 d          11.680  41.500  30.024  0.00  0.00     0.161 A 
ATOM     15  C13  11 d          11.088  42.596  30.914  0.00  0.00    -0.030 A 
ATOM     16  C14  11 d          10.271  42.227  32.004  0.00  0.00     0.011 A 
ATOM     17  C15  11 d           9.746  43.191  32.879  0.00  0.00     0.018 A 
ATOM     18  C16  11 d          10.022  44.558  32.689  0.00  0.00     0.039 A 
ATOM     19  C19  11 d          10.798  44.940  31.579  0.00  0.00     0.018 A 
ATOM     20  C20  11 d          11.315  43.977  30.700  0.00  0.00     0.011 A 
ATOM     21  N1   11 d          12.699  40.654  30.760  0.00  0.00    -0.333 N 
ATOM     22  C21  11 d          13.962  40.804  30.120  0.00  0.00     0.279 A 
ATOM     23  O5   11 d          15.076  40.334  30.542  0.00  0.00    -0.265 OA
ENDROOT
BRANCH  21  24
ATOM     24  C22  11 d          12.374  39.807  31.959  0.00  0.00     0.132 C 
BRANCH  24  25
ATOM     25  C23  11 d          13.246  40.022  33.207  0.00  0.00     0.058 C 
BRANCH  25  26
ATOM     26  C24  11 d          12.962  41.258  34.043  0.00  0.00    -0.057 A 
ATOM     27  C25  11 d          13.522  42.482  33.616  0.00  0.00     0.007 A 
ATOM     28  C26  11 d          13.255  43.675  34.303  0.00  0.00     0.001 A 
ATOM     29  C27  11 d          12.407  43.667  35.418  0.00  0.00     0.000 A 
ATOM     30  C28  11 d          11.821  42.468  35.841  0.00  0.00     0.001 A 
ATOM     31  C29  11 d          12.085  41.272  35.155  0.00  0.00     0.007 A 
ENDBRANCH  25  26
ENDBRANCH  24  25
ENDBRANCH  21  24
BRANCH  18  32
ATOM     32  C17  11 d           9.529  45.583  33.651  0.00  0.00     0.292 C 
ATOM     33  O3   11 d           8.291  45.705  33.860  0.00  0.00    -0.259 OA
BRANCH  32  34
ATOM     34  O4   11 d          10.468  46.453  34.297  0.00  0.00    -0.323 OA
ATOM     35  C18  11 d          10.348  47.842  33.897  0.00  0.00     0.213 C 
ENDBRANCH  32  34
ENDBRANCH  18  32
TORSDOF 5
ENDMDL
MODEL 7
REMARK VINA RESULT:      -8.1      2.716      8.466
REMARK  5 active torsions:
REMARK  status: ('A' for Active; 'I' for Inactive)
REMARK    1  A    between atoms: C16_18  and  C17_19 
REMARK    2  A    between atoms: C17_19  and  O4_21 
REMARK    3  A    between atoms: N1_25  and  C22_28 
REMARK    4  A    between atoms: C22_28  and  C23_29 
REMARK    5  A    between atoms: C23_29  and  C24_30 
ROOT
ATOM      1  C1   11 d          13.707  41.072  29.510  0.00  0.00     0.156 A 
ATOM      2  C2   11 d          12.578  41.795  29.838  0.00  0.00     0.060 A 
ATOM      3  C3   11 d          12.172  42.829  28.982  0.00  0.00     0.196 A 
ATOM      4  C4   11 d          12.958  43.116  27.839  0.00  0.00     0.049 A 
ATOM      5  C5   11 d          14.123  42.330  27.616  0.00  0.00     0.091 A 
ATOM      6  O1   11 d          14.440  41.347  28.445  0.00  0.00    -0.303 OA
ATOM      7  C6   11 d          14.948  42.602  26.519  0.00  0.00     0.045 A 
ATOM      8  C7   11 d          14.652  43.657  25.633  0.00  0.00    -0.053 A 
ATOM      9  C8   11 d          13.453  44.400  25.809  0.00  0.00    -0.055 A 
ATOM     10  C9   11 d          12.637  44.144  26.932  0.00  0.00     0.025 A 
ATOM     11  C10  11 d          13.110  45.578  24.928  0.00  0.00     0.049 C 
ATOM     12  C11  11 d          15.540  43.848  24.427  0.00  0.00     0.049 C 
ATOM     13  O2   11 d          11.127  43.483  29.236  0.00  0.00    -0.287 OA
ATOM     14  C12  11 d          11.959  41.314  31.134  0.00  0.00     0.161 A 
ATOM     15  C13  11 d          11.929  42.338  32.272  0.00  0.00    -0.030 A 
ATOM     16  C14  11 d          11.310  41.990  33.492  0.00  0.00     0.011 A 
ATOM     17  C15  11 d          11.301  42.873  34.582  0.00  0.00     0.018 A 
ATOM     18  C16  11 d          11.911  44.139  34.485  0.00  0.00     0.039 A 
ATOM     19  C19  11 d          12.491  44.513  33.259  0.00  0.00     0.018 A 
ATOM     20  C20  11 d          12.493  43.632  32.167  0.00  0.00     0.011 A 
ATOM     21  N1   11 d          12.828  40.117  31.465  0.00  0.00    -0.333 N 
ATOM     22  C21  11 d          13.900  40.062  30.530  0.00  0.00     0.279 A 
ATOM     23  O5   11 d          14.895  39.257  30.577  0.00  0.00    -0.265 OA
ENDROOT
BRANCH  21  24
ATOM     24  C22  11 d          12.552  39.171  32.600  0.00  0.00     0.132 C 
BRANCH  24  25
ATOM     25  C23  11 d          13.653  39.037  33.664  0.00  0.00     0.058 C 
BRANCH  25  26
ATOM     26  C24  11 d          14.654  37.908  33.484  0.00  0.00    -0.057 A 
ATOM     27  C25  11 d          14.174  36.680  32.976  0.00  0.00     0.007 A 
ATOM     28  C26  11 d          15.048  35.612  32.728  0.00  0.00     0.001 A 
ATOM     29  C27  11 d          16.421  35.760  32.965  0.00  0.00     0.000 A 
ATOM     30  C28  11 d          16.919  36.979  33.443  0.00  0.00     0.001 A 
ATOM     31  C29  11 d          16.047  38.050  33.692  0.00  0.00     0.007 A 
ENDBRANCH  25  26
ENDBRANCH  24  25
ENDBRANCH  21  24
BRANCH  18  32
ATOM     32  C17  11 d          11.969  45.056  35.656  0.00  0.00     0.292 C 
ATOM     33  O3   11 d          10.997  45.822  35.904  0.00  0.00    -0.259 OA
BRANCH  32  34
ATOM     34  O4   11 d          13.151  45.093  36.465  0.00  0.00    -0.323 OA
ATOM     35  C18  11 d          13.068  44.274  37.660  0.00  0.00     0.213 C 
ENDBRANCH  32  34
ENDBRANCH  18  32
TORSDOF 5
ENDMDL
MODEL 8
REMARK VINA RESULT:      -8.0      3.263      8.418
REMARK  5 active torsions:
REMARK  status: ('A' for Active; 'I' for Inactive)
REMARK    1  A    between atoms: C16_18  and  C17_19 
REMARK    2  A    between atoms: C17_19  and  O4_21 
REMARK    3  A    between atoms: N1_25  and  C22_28 
REMARK    4  A    between atoms: C22_28  and  C23_29 
REMARK    5  A    between atoms: C23_29  and  C24_30 
ROOT
ATOM      1  C1   11 d          12.868  41.603  29.827  0.00  0.00     0.156 A 
ATOM      2  C2   11 d          11.788  42.456  29.921  0.00  0.00     0.060 A 
ATOM      3  C3   11 d          11.588  43.400  28.903  0.00  0.00     0.196 A 
ATOM      4  C4   11 d          12.525  43.467  27.843  0.00  0.00     0.049 A 
ATOM      5  C5   11 d          13.623  42.563  27.865  0.00  0.00     0.091 A 
ATOM      6  O1   11 d          13.742  41.673  28.838  0.00  0.00    -0.303 OA
ATOM      7  C6   11 d          14.591  42.618  26.856  0.00  0.00     0.045 A 
ATOM      8  C7   11 d          14.506  43.570  25.820  0.00  0.00    -0.053 A 
ATOM      9  C8   11 d          13.375  44.428  25.753  0.00  0.00    -0.055 A 
ATOM     10  C9   11 d          12.414  44.391  26.786  0.00  0.00     0.025 A 
ATOM     11  C10  11 d          13.255  45.505  24.702  0.00  0.00     0.049 C 
ATOM     12  C11  11 d          15.542  43.525  24.722  0.00  0.00     0.049 C 
ATOM     13  O2   11 d          10.591  44.167  28.943  0.00  0.00    -0.287 OA
ATOM     14  C12  11 d          10.979  42.203  31.177  0.00  0.00     0.161 A 
ATOM     15  C13  11 d          10.921  43.365  32.171  0.00  0.00    -0.030 A 
ATOM     16  C14  11 d          10.134  43.233  33.335  0.00  0.00     0.011 A 
ATOM     17  C15  11 d          10.088  44.249  34.302  0.00  0.00     0.018 A 
ATOM     18  C16  11 d          10.828  45.435  34.132  0.00  0.00     0.039 A 
ATOM     19  C19  11 d          11.580  45.595  32.954  0.00  0.00     0.018 A 
ATOM     20  C20  11 d          11.620  44.582  31.985  0.00  0.00     0.011 A 
ATOM     21  N1   11 d          11.680  40.990  31.755  0.00  0.00    -0.333 N 
ATOM     22  C21  11 d          12.841  40.722  30.977  0.00  0.00     0.279 A 
ATOM     23  O5   11 d          13.739  39.849  31.246  0.00  0.00    -0.265 OA
ENDROOT
BRANCH  21  24
ATOM     24  C22  11 d          11.182  40.227  32.951  0.00  0.00     0.132 C 
BRANCH  24  25
ATOM     25  C23  11 d          12.156  40.093  34.133  0.00  0.00     0.058 C 
BRANCH  25  26
ATOM     26  C24  11 d          12.468  41.355  34.918  0.00  0.00    -0.057 A 
ATOM     27  C25  11 d          11.827  41.527  36.165  0.00  0.00     0.007 A 
ATOM     28  C26  11 d          12.110  42.638  36.973  0.00  0.00     0.001 A 
ATOM     29  C27  11 d          13.053  43.586  36.556  0.00  0.00     0.000 A 
ATOM     30  C28  11 d          13.719  43.419  35.335  0.00  0.00     0.001 A 
ATOM     31  C29  11 d          13.439  42.308  34.525  0.00  0.00     0.007 A 
ENDBRANCH  25  26
ENDBRANCH  24  25
ENDBRANCH  21  24
BRANCH  18  32
ATOM     32  C17  11 d          10.843  46.489  35.184  0.00  0.00     0.292 C 
ATOM     33  O3   11 d          10.499  46.205  36.364  0.00  0.00    -0.259 OA
BRANCH  32  34
ATOM     34  O4   11 d          11.205  47.831  34.833  0.00  0.00    -0.323 OA
ATOM     35  C18  11 d          10.073  48.672  34.493  0.00  0.00     0.213 C 
ENDBRANCH  32  34
ENDBRANCH  18  32
TORSDOF 5
ENDMDL
MODEL 9
REMARK VINA RESULT:      -8.0      2.756      6.613
REMARK  5 active torsions:
REMARK  status: ('A' for Active; 'I' for Inactive)
REMARK    1  A    between atoms: C16_18  and  C17_19 
REMARK    2  A    between atoms: C17_19  and  O4_21 
REMARK    3  A    between atoms: N1_25  and  C22_28 
REMARK    4  A    between atoms: C22_28  and  C23_29 
REMARK    5  A    between atoms: C23_29  and  C24_30 
ROOT
ATOM      1  C1   11 d          13.511  41.353  31.887  0.00  0.00     0.156 A 
ATOM      2  C2   11 d          13.221  40.835  30.641  0.00  0.00     0.060 A 
ATOM      3  C3   11 d          13.735  39.575  30.303  0.00  0.00     0.196 A 
ATOM      4  C4   11 d          14.564  38.904  31.235  0.00  0.00     0.049 A 
ATOM      5  C5   11 d          14.828  39.547  32.476  0.00  0.00     0.091 A 
ATOM      6  O1   11 d          14.289  40.725  32.751  0.00  0.00    -0.303 OA
ATOM      7  C6   11 d          15.670  38.937  33.413  0.00  0.00     0.045 A 
ATOM      8  C7   11 d          16.278  37.695  33.140  0.00  0.00    -0.053 A 
ATOM      9  C8   11 d          15.963  37.015  31.933  0.00  0.00    -0.055 A 
ATOM     10  C9   11 d          15.137  37.644  30.978  0.00  0.00     0.025 A 
ATOM     11  C10  11 d          16.626  35.710  31.559  0.00  0.00     0.049 C 
ATOM     12  C11  11 d          17.114  37.056  34.223  0.00  0.00     0.049 C 
ATOM     13  O2   11 d          13.458  39.060  29.188  0.00  0.00    -0.287 OA
ATOM     14  C12  11 d          12.359  41.778  29.827  0.00  0.00     0.161 A 
ATOM     15  C13  11 d          12.993  42.306  28.538  0.00  0.00    -0.030 A 
ATOM     16  C14  11 d          12.231  43.137  27.689  0.00  0.00     0.011 A 
ATOM     17  C15  11 d          12.783  43.688  26.523  0.00  0.00     0.018 A 
ATOM     18  C16  11 d          14.118  43.422  26.166  0.00  0.00     0.039 A 
ATOM     19  C19  11 d          14.873  42.558  26.981  0.00  0.00     0.018 A 
ATOM     20  C20  11 d          14.318  42.001  28.143  0.00  0.00     0.011 A 
ATOM     21  N1   11 d          12.085  42.884  30.825  0.00  0.00    -0.333 N 
ATOM     22  C21  11 d          12.855  42.640  31.997  0.00  0.00     0.279 A 
ATOM     23  O5   11 d          12.968  43.431  32.998  0.00  0.00    -0.265 OA
ENDROOT
BRANCH  21  24
ATOM     24  C22  11 d          11.140  44.026  30.571  0.00  0.00     0.132 C 
BRANCH  24  25
ATOM     25  C23  11 d           9.648  43.747  30.812  0.00  0.00     0.058 C 
BRANCH  25  26
ATOM     26  C24  11 d           9.293  42.852  31.987  0.00  0.00    -0.057 A 
ATOM     27  C25  11 d           8.928  41.517  31.708  0.00  0.00     0.007 A 
ATOM     28  C26  11 d           8.645  40.616  32.744  0.00  0.00     0.001 A 
ATOM     29  C27  11 d           8.741  41.030  34.079  0.00  0.00     0.000 A 
ATOM     30  C28  11 d           9.127  42.343  34.376  0.00  0.00     0.001 A 
ATOM     31  C29  11 d           9.412  43.247  33.341  0.00  0.00     0.007 A 
ENDBRANCH  25  26
ENDBRANCH  24  25
ENDBRANCH  21  24
BRANCH  18  32
ATOM     32  C17  11 d          14.736  44.057  24.969  0.00  0.00     0.292 C 
ATOM     33  O3   11 d          14.141  45.003  24.382  0.00  0.00    -0.259 OA
BRANCH  32  34
ATOM     34  O4   11 d          15.981  43.555  24.467  0.00  0.00    -0.323 OA
ATOM     35  C18  11 d          16.684  44.487  23.606  0.00  0.00     0.213 C 
ENDBRANCH  32  34
ENDBRANCH  18  32
TORSDOF 5
ENDMDL
MODEL 10
REMARK VINA RESULT:      -7.6      3.221      8.912
REMARK  5 active torsions:
REMARK  status: ('A' for Active; 'I' for Inactive)
REMARK    1  A    between atoms: C16_18  and  C17_19 
REMARK    2  A    between atoms: C17_19  and  O4_21 
REMARK    3  A    between atoms: N1_25  and  C22_28 
REMARK    4  A    between atoms: C22_28  and  C23_29 
REMARK    5  A    between atoms: C23_29  and  C24_30 
ROOT
ATOM      1  C1   11 d          13.082  41.020  30.387  0.00  0.00     0.156 A 
ATOM      2  C2   11 d          12.127  41.970  30.685  0.00  0.00     0.060 A 
ATOM      3  C3   11 d          11.900  43.004  29.766  0.00  0.00     0.196 A 
ATOM      4  C4   11 d          12.687  43.055  28.590  0.00  0.00     0.049 A 
ATOM      5  C5   11 d          13.668  42.043  28.399  0.00  0.00     0.091 A 
ATOM      6  O1   11 d          13.817  41.074  29.289  0.00  0.00    -0.303 OA
ATOM      7  C6   11 d          14.492  42.075  27.268  0.00  0.00     0.045 A 
ATOM      8  C7   11 d          14.375  43.106  26.315  0.00  0.00    -0.053 A 
ATOM      9  C8   11 d          13.350  44.079  26.462  0.00  0.00    -0.055 A 
ATOM     10  C9   11 d          12.540  44.063  27.617  0.00  0.00     0.025 A 
ATOM     11  C10  11 d          13.211  45.240  25.506  0.00  0.00     0.049 C 
ATOM     12  C11  11 d          15.242  43.039  25.080  0.00  0.00     0.049 C 
ATOM     13  O2   11 d          11.011  43.865  29.994  0.00  0.00    -0.287 OA
ATOM     14  C12  11 d          11.472  41.707  32.026  0.00  0.00     0.161 A 
ATOM     15  C13  11 d          11.680  42.790  33.087  0.00  0.00    -0.030 A 
ATOM     16  C14  11 d          11.048  42.652  34.342  0.00  0.00     0.011 A 
ATOM     17  C15  11 d          11.248  43.590  35.365  0.00  0.00     0.018 A 
ATOM     18  C16  11 d          12.087  44.702  35.164  0.00  0.00     0.039 A 
ATOM     19  C19  11 d          12.687  44.874  33.903  0.00  0.00     0.018 A 
ATOM     20  C20  11 d          12.480  43.939  32.878  0.00  0.00     0.011 A 
ATOM     21  N1   11 d          12.103  40.388  32.423  0.00  0.00    -0.333 N 
ATOM     22  C21  11 d          13.112  40.061  31.473  0.00  0.00     0.279 A 
ATOM     23  O5   11 d          13.933  39.082  31.557  0.00  0.00    -0.265 OA
ENDROOT
BRANCH  21  24
ATOM     24  C22  11 d          11.689  39.591  33.629  0.00  0.00     0.132 C 
BRANCH  24  25
ATOM     25  C23  11 d          10.309  38.917  33.565  0.00  0.00     0.058 C 
BRANCH  25  26
ATOM     26  C24  11 d           9.121  39.728  34.053  0.00  0.00    -0.057 A 
ATOM     27  C25  11 d           8.354  40.415  33.087  0.00  0.00     0.007 A 
ATOM     28  C26  11 d           7.208  41.135  33.455  0.00  0.00     0.001 A 
ATOM     29  C27  11 d           6.799  41.164  34.795  0.00  0.00     0.000 A 
ATOM     30  C28  11 d           7.531  40.466  35.763  0.00  0.00     0.001 A 
ATOM     31  C29  11 d           8.678  39.744  35.398  0.00  0.00     0.007 A 
ENDBRANCH  25  26
ENDBRANCH  24  25
ENDBRANCH  21  24
BRANCH  18  32
ATOM     32  C17  11 d          12.363  45.667  36.265  0.00  0.00     0.292 C 
ATOM     33  O3   11 d          13.206  45.377  37.159  0.00  0.00    -0.259 OA
BRANCH  32  34
ATOM     34  O4   11 d          11.631  46.898  36.325  0.00  0.00    -0.323 OA
ATOM     35  C18  11 d          10.647  46.943  37.389  0.00  0.00     0.213 C 
ENDBRANCH  32  34
ENDBRANCH  18  32
TORSDOF 5
ENDMDL
