MODEL 1
REMARK VINA RESULT:     -11.7      0.000      0.000
REMARK  4 active torsions:
REMARK  status: ('A' for Active; 'I' for Inactive)
REMARK    1  A    between atoms: C10_14  and  N3_15 
REMARK    2  A    between atoms: C14_19  and  S2_22 
REMARK    3  A    between atoms: N4_25  and  S2_22 
REMARK    4  A    between atoms: N4_25  and  C20_30 
ROOT
ATOM      1  N3  <1> d         -10.060 207.958 111.727  0.00  0.00    -0.320 N 
ATOM      2  C11 <1> d          -9.103 208.473 112.513  0.00  0.00     0.031 A 
ATOM      3  C12 <1> d          -9.355 208.985 113.899  0.00  0.00     0.025 A 
ATOM      4  C13 <1> d          -8.234 209.438 114.714  0.00  0.00     0.030 A 
ATOM      5  C14 <1> d          -6.874 209.488 114.128  0.00  0.00     0.109 A 
ATOM      6  C15 <1> d          -6.610 208.980 112.767  0.00  0.00     0.030 A 
ATOM      7  C16 <1> d          -7.731 208.488 111.948  0.00  0.00     0.025 A 
ATOM      8  H6  <1> d         -10.006 208.191 110.755  0.00  0.00     0.152 HD
ENDROOT
BRANCH   1   9
ATOM      9  C10 <1> d         -11.191 207.079 112.130  0.00  0.00     0.085 C 
ATOM     10  C9  <1> d         -12.308 207.045 111.378  0.00  0.00     0.061 A 
ATOM     11  C1  <1> d         -12.383 207.421 109.922  0.00  0.00     0.250 A 
ATOM     12  C8  <1> d         -13.675 206.716 111.733  0.00  0.00     0.025 A 
ATOM     13  O1  <1> d         -11.448 207.851 109.241  0.00  0.00    -0.270 OA
ATOM     14  N1  <1> d         -13.647 207.233 109.493  0.00  0.00    -0.281 N 
ATOM     15  C2  <1> d         -14.450 206.846 110.518  0.00  0.00     0.043 A 
ATOM     16  H1  <1> d         -13.952 207.360 108.549  0.00  0.00     0.155 HD
ATOM     17  C3  <1> d         -15.910 206.617 110.519  0.00  0.00     0.026 A 
ATOM     18  C4  <1> d         -16.586 206.196 111.752  0.00  0.00     0.031 A 
ATOM     19  C5  <1> d         -15.824 206.069 112.981  0.00  0.00     0.079 A 
ATOM     20  N2  <1> d         -16.231 205.694 114.254  0.00  0.00    -0.247 NA
ATOM     21  C7  <1> d         -14.329 206.344 112.998  0.00  0.00     0.049 A 
ATOM     22  C6  <1> d         -15.210 205.630 115.146  0.00  0.00     0.157 A 
ATOM     23  S1  <1> d         -13.712 206.132 114.548  0.00  0.00    -0.075 SA
ENDBRANCH   1   9
BRANCH   5  24
ATOM     24  S2  <1> d          -5.594 210.184 115.111  0.00  0.00     0.073 S 
ATOM     25  O2  <1> d          -4.338 210.044 114.439  0.00  0.00    -0.150 OA
ATOM     26  O3  <1> d          -6.060 211.485 115.483  0.00  0.00    -0.150 OA
BRANCH  24  27
ATOM     27  N4  <1> d          -5.465 209.275 116.493  0.00  0.00    -0.200 N 
ATOM     28  H11 <1> d          -5.059 208.366 116.394  0.00  0.00     0.175 HD
BRANCH  27  29
ATOM     29  C20 <1> d          -5.861 209.644 117.779  0.00  0.00     0.138 A 
ATOM     30  N5  <1> d          -6.801 208.775 118.434  0.00  0.00    -0.239 NA
ATOM     31  C19 <1> d          -7.406 209.130 119.688  0.00  0.00     0.113 A 
ATOM     32  C18 <1> d          -7.026 210.379 120.384  0.00  0.00     0.020 A 
ATOM     33  C17 <1> d          -5.983 211.226 119.762  0.00  0.00     0.005 A 
ATOM     34  C21 <1> d          -5.385 210.891 118.466  0.00  0.00     0.045 A 
ENDBRANCH  27  29
ENDBRANCH  24  27
ENDBRANCH   5  24
TORSDOF 4
ENDMDL
MODEL 2
REMARK VINA RESULT:     -11.4      2.235      2.859
REMARK  4 active torsions:
REMARK  status: ('A' for Active; 'I' for Inactive)
REMARK    1  A    between atoms: C10_14  and  N3_15 
REMARK    2  A    between atoms: C14_19  and  S2_22 
REMARK    3  A    between atoms: N4_25  and  S2_22 
REMARK    4  A    between atoms: N4_25  and  C20_30 
ROOT
ATOM      1  N3  <1> d         -10.154 207.882 111.755  0.00  0.00    -0.320 N 
ATOM      2  C11 <1> d          -9.254 208.405 112.601  0.00  0.00     0.031 A 
ATOM      3  C12 <1> d          -9.603 208.948 113.954  0.00  0.00     0.025 A 
ATOM      4  C13 <1> d          -8.542 209.407 114.842  0.00  0.00     0.030 A 
ATOM      5  C14 <1> d          -7.141 209.432 114.359  0.00  0.00     0.109 A 
ATOM      6  C15 <1> d          -6.781 208.894 113.032  0.00  0.00     0.030 A 
ATOM      7  C16 <1> d          -7.843 208.395 112.141  0.00  0.00     0.025 A 
ATOM      8  H6  <1> d         -10.025 208.096 110.787  0.00  0.00     0.152 HD
ENDROOT
BRANCH   1   9
ATOM      9  C10 <1> d         -11.322 207.023 112.089  0.00  0.00     0.085 C 
ATOM     10  C9  <1> d         -12.413 207.045 111.300  0.00  0.00     0.061 A 
ATOM     11  C1  <1> d         -12.426 207.472 109.856  0.00  0.00     0.250 A 
ATOM     12  C8  <1> d         -13.799 206.743 111.597  0.00  0.00     0.025 A 
ATOM     13  O1  <1> d         -11.457 207.898 109.222  0.00  0.00    -0.270 OA
ATOM     14  N1  <1> d         -13.680 207.333 109.378  0.00  0.00    -0.281 N 
ATOM     15  C2  <1> d         -14.528 206.935 110.362  0.00  0.00     0.043 A 
ATOM     16  H1  <1> d         -13.948 207.500 108.429  0.00  0.00     0.155 HD
ATOM     17  C3  <1> d         -15.993 206.748 110.305  0.00  0.00     0.026 A 
ATOM     18  C4  <1> d         -16.722 206.304 111.499  0.00  0.00     0.031 A 
ATOM     19  C5  <1> d         -16.007 206.115 112.748  0.00  0.00     0.079 A 
ATOM     20  N2  <1> d         -16.468 205.709 113.993  0.00  0.00    -0.247 NA
ATOM     21  C7  <1> d         -14.506 206.348 112.825  0.00  0.00     0.049 A 
ATOM     22  C6  <1> d         -15.481 205.588 114.917  0.00  0.00     0.157 A 
ATOM     23  S1  <1> d         -13.950 206.067 114.387  0.00  0.00    -0.075 SA
ENDBRANCH   1   9
BRANCH   5  24
ATOM     24  S2  <1> d          -5.931 210.136 115.422  0.00  0.00     0.073 S 
ATOM     25  O2  <1> d          -5.973 211.564 115.323  0.00  0.00    -0.150 OA
ATOM     26  O3  <1> d          -6.123 209.506 116.692  0.00  0.00    -0.150 OA
BRANCH  24  27
ATOM     27  N4  <1> d          -4.437 209.693 114.854  0.00  0.00    -0.200 N 
ATOM     28  H11 <1> d          -3.988 210.333 114.230  0.00  0.00     0.175 HD
BRANCH  27  29
ATOM     29  C20 <1> d          -3.739 208.523 115.154  0.00  0.00     0.138 A 
ATOM     30  N5  <1> d          -2.571 208.667 115.980  0.00  0.00    -0.239 NA
ATOM     31  C19 <1> d          -1.681 207.565 116.223  0.00  0.00     0.113 A 
ATOM     32  C18 <1> d          -1.977 206.220 115.682  0.00  0.00     0.020 A 
ATOM     33  C17 <1> d          -3.232 206.046 114.915  0.00  0.00     0.005 A 
ATOM     34  C21 <1> d          -4.129 207.170 114.631  0.00  0.00     0.045 A 
ENDBRANCH  27  29
ENDBRANCH  24  27
ENDBRANCH   5  24
TORSDOF 4
ENDMDL
MODEL 3
REMARK VINA RESULT:     -10.8      1.177      1.520
REMARK  4 active torsions:
REMARK  status: ('A' for Active; 'I' for Inactive)
REMARK    1  A    between atoms: C10_14  and  N3_15 
REMARK    2  A    between atoms: C14_19  and  S2_22 
REMARK    3  A    between atoms: N4_25  and  S2_22 
REMARK    4  A    between atoms: N4_25  and  C20_30 
ROOT
ATOM      1  N3  <1> d          -9.843 208.167 112.227  0.00  0.00    -0.320 N 
ATOM      2  C11 <1> d          -8.863 208.442 113.101  0.00  0.00     0.031 A 
ATOM      3  C12 <1> d          -9.097 208.669 114.565  0.00  0.00     0.025 A 
ATOM      4  C13 <1> d          -7.958 208.866 115.453  0.00  0.00     0.030 A 
ATOM      5  C14 <1> d          -6.591 208.948 114.886  0.00  0.00     0.109 A 
ATOM      6  C15 <1> d          -6.345 208.719 113.449  0.00  0.00     0.030 A 
ATOM      7  C16 <1> d          -7.488 208.484 112.548  0.00  0.00     0.025 A 
ATOM      8  H6  <1> d          -9.764 208.594 111.326  0.00  0.00     0.152 HD
ENDROOT
BRANCH   1   9
ATOM      9  C10 <1> d         -11.034 207.300 112.441  0.00  0.00     0.085 C 
ATOM     10  C9  <1> d         -11.998 207.251 111.503  0.00  0.00     0.061 A 
ATOM     11  C1  <1> d         -11.809 207.595 110.049  0.00  0.00     0.250 A 
ATOM     12  C8  <1> d         -13.408 206.934 111.615  0.00  0.00     0.025 A 
ATOM     13  O1  <1> d         -10.765 208.006 109.537  0.00  0.00    -0.270 OA
ATOM     14  N1  <1> d         -12.978 207.399 109.405  0.00  0.00    -0.281 N 
ATOM     15  C2  <1> d         -13.953 207.038 110.278  0.00  0.00     0.043 A 
ATOM     16  H1  <1> d         -13.109 207.505 108.419  0.00  0.00     0.155 HD
ATOM     17  C3  <1> d         -15.392 206.812 110.023  0.00  0.00     0.026 A 
ATOM     18  C4  <1> d         -16.279 206.420 111.125  0.00  0.00     0.031 A 
ATOM     19  C5  <1> d         -15.750 206.320 112.473  0.00  0.00     0.079 A 
ATOM     20  N2  <1> d         -16.380 205.975 113.660  0.00  0.00    -0.247 NA
ATOM     21  C7  <1> d         -14.280 206.592 112.750  0.00  0.00     0.049 A 
ATOM     22  C6  <1> d         -15.536 205.930 114.722  0.00  0.00     0.157 A 
ATOM     23  S1  <1> d         -13.952 206.414 114.389  0.00  0.00    -0.075 SA
ENDBRANCH   1   9
BRANCH   5  24
ATOM     24  S2  <1> d          -5.279 209.337 115.990  0.00  0.00     0.073 S 
ATOM     25  O2  <1> d          -5.010 208.213 116.836  0.00  0.00    -0.150 OA
ATOM     26  O3  <1> d          -4.236 209.876 115.172  0.00  0.00    -0.150 OA
BRANCH  24  27
ATOM     27  N4  <1> d          -5.807 210.541 117.002  0.00  0.00    -0.200 N 
ATOM     28  H11 <1> d          -6.563 211.104 116.669  0.00  0.00     0.175 HD
BRANCH  27  29
ATOM     29  C20 <1> d          -5.309 210.851 118.267  0.00  0.00     0.138 A 
ATOM     30  N5  <1> d          -3.951 210.460 118.535  0.00  0.00    -0.239 NA
ATOM     31  C19 <1> d          -3.380 210.578 119.848  0.00  0.00     0.113 A 
ATOM     32  C18 <1> d          -4.154 211.173 120.959  0.00  0.00     0.020 A 
ATOM     33  C17 <1> d          -5.517 211.669 120.662  0.00  0.00     0.005 A 
ATOM     34  C21 <1> d          -6.123 211.523 119.335  0.00  0.00     0.045 A 
ENDBRANCH  27  29
ENDBRANCH  24  27
ENDBRANCH   5  24
TORSDOF 4
ENDMDL
MODEL 4
REMARK VINA RESULT:     -10.0      5.670     10.183
REMARK  4 active torsions:
REMARK  status: ('A' for Active; 'I' for Inactive)
REMARK    1  A    between atoms: C10_14  and  N3_15 
REMARK    2  A    between atoms: C14_19  and  S2_22 
REMARK    3  A    between atoms: N4_25  and  S2_22 
REMARK    4  A    between atoms: N4_25  and  C20_30 
ROOT
ATOM      1  N3  <1> d         -13.183 206.974 116.709  0.00  0.00    -0.320 N 
ATOM      2  C11 <1> d         -13.895 206.004 117.301  0.00  0.00     0.031 A 
ATOM      3  C12 <1> d         -14.638 204.942 116.547  0.00  0.00     0.025 A 
ATOM      4  C13 <1> d         -15.304 203.872 117.280  0.00  0.00     0.030 A 
ATOM      5  C14 <1> d         -15.332 203.903 118.761  0.00  0.00     0.109 A 
ATOM      6  C15 <1> d         -14.599 204.938 119.517  0.00  0.00     0.030 A 
ATOM      7  C16 <1> d         -13.893 206.005 118.785  0.00  0.00     0.025 A 
ATOM      8  H6  <1> d         -13.236 207.880 117.130  0.00  0.00     0.152 HD
ENDROOT
BRANCH   1   9
ATOM      9  C10 <1> d         -12.324 206.861 115.499  0.00  0.00     0.085 C 
ATOM     10  C9  <1> d         -11.270 207.687 115.352  0.00  0.00     0.061 A 
ATOM     11  C1  <1> d         -10.564 208.397 116.476  0.00  0.00     0.250 A 
ATOM     12  C8  <1> d         -10.591 208.146 114.156  0.00  0.00     0.025 A 
ATOM     13  O1  <1> d         -10.882 208.353 117.667  0.00  0.00    -0.270 OA
ATOM     14  N1  <1> d          -9.540 209.107 115.960  0.00  0.00    -0.281 N 
ATOM     15  C2  <1> d          -9.526 209.016 114.605  0.00  0.00     0.043 A 
ATOM     16  H1  <1> d          -8.880 209.628 116.501  0.00  0.00     0.155 HD
ATOM     17  C3  <1> d          -8.642 209.699 113.637  0.00  0.00     0.026 A 
ATOM     18  C4  <1> d          -8.801 209.453 112.199  0.00  0.00     0.031 A 
ATOM     19  C5  <1> d          -9.869 208.589 111.732  0.00  0.00     0.079 A 
ATOM     20  N2  <1> d         -10.218 208.211 110.442  0.00  0.00    -0.247 NA
ATOM     21  C7  <1> d         -10.810 207.917 112.718  0.00  0.00     0.049 A 
ATOM     22  C6  <1> d         -11.251 207.331 110.403  0.00  0.00     0.157 A 
ATOM     23  S1  <1> d         -11.951 206.990 111.902  0.00  0.00    -0.075 SA
ENDBRANCH   1   9
BRANCH   5  24
ATOM     24  S2  <1> d         -16.278 202.669 119.579  0.00  0.00     0.073 S 
ATOM     25  O2  <1> d         -16.273 201.464 118.805  0.00  0.00    -0.150 OA
ATOM     26  O3  <1> d         -15.799 202.647 120.927  0.00  0.00    -0.150 OA
BRANCH  24  27
ATOM     27  N4  <1> d         -17.857 203.174 119.607  0.00  0.00    -0.200 N 
ATOM     28  H11 <1> d         -18.377 203.064 118.760  0.00  0.00     0.175 HD
BRANCH  27  29
ATOM     29  C20 <1> d         -18.539 203.738 120.687  0.00  0.00     0.138 A 
ATOM     30  N5  <1> d         -18.108 205.044 121.105  0.00  0.00    -0.239 NA
ATOM     31  C19 <1> d         -18.619 205.658 122.299  0.00  0.00     0.113 A 
ATOM     32  C18 <1> d         -19.662 204.988 123.106  0.00  0.00     0.020 A 
ATOM     33  C17 <1> d         -20.180 203.688 122.623  0.00  0.00     0.005 A 
ATOM     34  C21 <1> d         -19.642 203.037 121.425  0.00  0.00     0.045 A 
ENDBRANCH  27  29
ENDBRANCH  24  27
ENDBRANCH   5  24
TORSDOF 4
ENDMDL
MODEL 5
REMARK VINA RESULT:      -9.9      5.684      9.123
REMARK  4 active torsions:
REMARK  status: ('A' for Active; 'I' for Inactive)
REMARK    1  A    between atoms: C10_14  and  N3_15 
REMARK    2  A    between atoms: C14_19  and  S2_22 
REMARK    3  A    between atoms: N4_25  and  S2_22 
REMARK    4  A    between atoms: N4_25  and  C20_30 
ROOT
ATOM      1  N3  <1> d         -12.712 205.261 115.812  0.00  0.00    -0.320 N 
ATOM      2  C11 <1> d         -13.255 205.499 117.015  0.00  0.00     0.031 A 
ATOM      3  C12 <1> d         -13.169 206.820 117.718  0.00  0.00     0.025 A 
ATOM      4  C13 <1> d         -13.874 207.011 118.979  0.00  0.00     0.030 A 
ATOM      5  C14 <1> d         -14.579 205.868 119.607  0.00  0.00     0.109 A 
ATOM      6  C15 <1> d         -14.677 204.564 118.924  0.00  0.00     0.030 A 
ATOM      7  C16 <1> d         -13.997 204.371 117.631  0.00  0.00     0.025 A 
ATOM      8  H6  <1> d         -12.292 204.361 115.688  0.00  0.00     0.152 HD
ENDROOT
BRANCH   1   9
ATOM      9  C10 <1> d         -12.660 206.178 114.641  0.00  0.00     0.085 C 
ATOM     10  C9  <1> d         -13.697 206.220 113.783  0.00  0.00     0.061 A 
ATOM     11  C1  <1> d         -15.108 205.807 114.109  0.00  0.00     0.250 A 
ATOM     12  C8  <1> d         -13.748 206.592 112.383  0.00  0.00     0.025 A 
ATOM     13  O1  <1> d         -15.489 205.337 115.184  0.00  0.00    -0.270 OA
ATOM     14  N1  <1> d         -15.879 206.016 113.023  0.00  0.00    -0.281 N 
ATOM     15  C2  <1> d         -15.129 206.450 111.977  0.00  0.00     0.043 A 
ATOM     16  H1  <1> d         -16.868 205.872 112.992  0.00  0.00     0.155 HD
ATOM     17  C3  <1> d         -15.545 206.715 110.583  0.00  0.00     0.026 A 
ATOM     18  C4  <1> d         -14.560 207.186 109.602  0.00  0.00     0.031 A 
ATOM     19  C5  <1> d         -13.169 207.326 109.991  0.00  0.00     0.079 A 
ATOM     20  N2  <1> d         -12.070 207.745 109.254  0.00  0.00    -0.247 NA
ATOM     21  C7  <1> d         -12.726 207.014 111.411  0.00  0.00     0.049 A 
ATOM     22  C6  <1> d         -10.927 207.806 109.984  0.00  0.00     0.157 A 
ATOM     23  S1  <1> d         -11.070 207.251 111.573  0.00  0.00    -0.075 SA
ENDBRANCH   1   9
BRANCH   5  24
ATOM     24  S2  <1> d         -15.280 206.126 121.198  0.00  0.00     0.073 S 
ATOM     25  O2  <1> d         -15.233 204.908 121.950  0.00  0.00    -0.150 OA
ATOM     26  O3  <1> d         -14.646 207.301 121.712  0.00  0.00    -0.150 OA
BRANCH  24  27
ATOM     27  N4  <1> d         -16.891 206.463 120.995  0.00  0.00    -0.200 N 
ATOM     28  H11 <1> d         -17.113 207.297 120.489  0.00  0.00     0.175 HD
BRANCH  27  29
ATOM     29  C20 <1> d         -17.971 205.708 121.455  0.00  0.00     0.138 A 
ATOM     30  N5  <1> d         -18.396 205.954 122.806  0.00  0.00    -0.239 NA
ATOM     31  C19 <1> d         -19.385 205.131 123.444  0.00  0.00     0.113 A 
ATOM     32  C18 <1> d         -20.052 204.038 122.704  0.00  0.00     0.020 A 
ATOM     33  C17 <1> d         -19.689 203.847 121.282  0.00  0.00     0.005 A 
ATOM     34  C21 <1> d         -18.656 204.657 120.630  0.00  0.00     0.045 A 
ENDBRANCH  27  29
ENDBRANCH  24  27
ENDBRANCH   5  24
TORSDOF 4
ENDMDL
MODEL 6
REMARK VINA RESULT:      -9.3      6.782     10.717
REMARK  4 active torsions:
REMARK  status: ('A' for Active; 'I' for Inactive)
REMARK    1  A    between atoms: C10_14  and  N3_15 
REMARK    2  A    between atoms: C14_19  and  S2_22 
REMARK    3  A    between atoms: N4_25  and  S2_22 
REMARK    4  A    between atoms: N4_25  and  C20_30 
ROOT
ATOM      1  N3  <1> d         -13.688 205.000 118.519  0.00  0.00    -0.320 N 
ATOM      2  C11 <1> d         -14.344 205.124 119.682  0.00  0.00     0.031 A 
ATOM      3  C12 <1> d         -14.036 206.182 120.700  0.00  0.00     0.025 A 
ATOM      4  C13 <1> d         -14.868 206.297 121.891  0.00  0.00     0.030 A 
ATOM      5  C14 <1> d         -15.940 205.304 122.137  0.00  0.00     0.109 A 
ATOM      6  C15 <1> d         -16.258 204.262 121.142  0.00  0.00     0.030 A 
ATOM      7  C16 <1> d         -15.445 204.159 119.917  0.00  0.00     0.025 A 
ATOM      8  H6  <1> d         -13.501 204.065 118.215  0.00  0.00     0.152 HD
ENDROOT
BRANCH   1   9
ATOM      9  C10 <1> d         -13.205 206.089 117.628  0.00  0.00     0.085 C 
ATOM     10  C9  <1> d         -13.410 206.003 116.299  0.00  0.00     0.061 A 
ATOM     11  C1  <1> d         -14.483 205.175 115.642  0.00  0.00     0.250 A 
ATOM     12  C8  <1> d         -12.682 206.589 115.192  0.00  0.00     0.025 A 
ATOM     13  O1  <1> d         -15.281 204.437 116.226  0.00  0.00    -0.270 OA
ATOM     14  N1  <1> d         -14.410 205.358 114.308  0.00  0.00    -0.281 N 
ATOM     15  C2  <1> d         -13.358 206.155 113.989  0.00  0.00     0.043 A 
ATOM     16  H1  <1> d         -15.044 204.961 113.645  0.00  0.00     0.155 HD
ATOM     17  C3  <1> d         -12.857 206.542 112.653  0.00  0.00     0.026 A 
ATOM     18  C4  <1> d         -11.692 207.426 112.534  0.00  0.00     0.031 A 
ATOM     19  C5  <1> d         -10.997 207.864 113.731  0.00  0.00     0.079 A 
ATOM     20  N2  <1> d          -9.888 208.686 113.874  0.00  0.00    -0.247 NA
ATOM     21  C7  <1> d         -11.480 207.435 115.107  0.00  0.00     0.049 A 
ATOM     22  C6  <1> d          -9.560 208.921 115.170  0.00  0.00     0.157 A 
ATOM     23  S1  <1> d         -10.486 208.076 116.302  0.00  0.00    -0.075 SA
ENDBRANCH   1   9
BRANCH   5  24
ATOM     24  S2  <1> d         -16.806 205.409 123.663  0.00  0.00     0.073 S 
ATOM     25  O2  <1> d         -16.853 204.119 124.283  0.00  0.00    -0.150 OA
ATOM     26  O3  <1> d         -16.219 206.512 124.362  0.00  0.00    -0.150 OA
BRANCH  24  27
ATOM     27  N4  <1> d         -18.382 205.800 123.326  0.00  0.00    -0.200 N 
ATOM     28  H11 <1> d         -18.767 206.575 123.828  0.00  0.00     0.175 HD
BRANCH  27  29
ATOM     29  C20 <1> d         -19.229 205.163 122.418  0.00  0.00     0.138 A 
ATOM     30  N5  <1> d         -19.789 203.908 122.837  0.00  0.00    -0.239 NA
ATOM     31  C19 <1> d         -20.542 203.082 121.934  0.00  0.00     0.113 A 
ATOM     32  C18 <1> d         -20.823 203.532 120.553  0.00  0.00     0.020 A 
ATOM     33  C17 <1> d         -20.333 204.869 120.151  0.00  0.00     0.005 A 
ATOM     34  C21 <1> d         -19.534 205.706 121.052  0.00  0.00     0.045 A 
ENDBRANCH  27  29
ENDBRANCH  24  27
ENDBRANCH   5  24
TORSDOF 4
ENDMDL
MODEL 7
REMARK VINA RESULT:      -9.3      3.610     10.406
REMARK  4 active torsions:
REMARK  status: ('A' for Active; 'I' for Inactive)
REMARK    1  A    between atoms: C10_14  and  N3_15 
REMARK    2  A    between atoms: C14_19  and  S2_22 
REMARK    3  A    between atoms: N4_25  and  S2_22 
REMARK    4  A    between atoms: N4_25  and  C20_30 
ROOT
ATOM      1  N3  <1> d          -7.841 208.750 116.137  0.00  0.00    -0.320 N 
ATOM      2  C11 <1> d          -9.149 208.549 115.921  0.00  0.00     0.031 A 
ATOM      3  C12 <1> d          -9.791 208.639 114.569  0.00  0.00     0.025 A 
ATOM      4  C13 <1> d         -11.202 208.309 114.419  0.00  0.00     0.030 A 
ATOM      5  C14 <1> d         -12.013 207.992 115.618  0.00  0.00     0.109 A 
ATOM      6  C15 <1> d         -11.394 207.892 116.954  0.00  0.00     0.030 A 
ATOM      7  C16 <1> d          -9.960 208.190 117.111  0.00  0.00     0.025 A 
ATOM      8  H6  <1> d          -7.602 209.244 116.974  0.00  0.00     0.152 HD
ENDROOT
BRANCH   1   9
ATOM      9  C10 <1> d          -6.702 208.325 115.277  0.00  0.00     0.085 C 
ATOM     10  C9  <1> d          -5.671 207.653 115.823  0.00  0.00     0.061 A 
ATOM     11  C1  <1> d          -5.736 206.858 117.100  0.00  0.00     0.250 A 
ATOM     12  C8  <1> d          -4.286 207.549 115.407  0.00  0.00     0.025 A 
ATOM     13  O1  <1> d          -6.722 206.754 117.834  0.00  0.00    -0.270 OA
ATOM     14  N1  <1> d          -4.529 206.297 117.319  0.00  0.00    -0.281 N 
ATOM     15  C2  <1> d          -3.637 206.690 116.372  0.00  0.00     0.043 A 
ATOM     16  H1  <1> d          -4.319 205.676 118.074  0.00  0.00     0.155 HD
ATOM     17  C3  <1> d          -2.193 206.391 116.276  0.00  0.00     0.026 A 
ATOM     18  C4  <1> d          -1.407 206.922 115.156  0.00  0.00     0.031 A 
ATOM     19  C5  <1> d          -2.042 207.793 114.183  0.00  0.00     0.079 A 
ATOM     20  N2  <1> d          -1.517 208.411 113.056  0.00  0.00    -0.247 NA
ATOM     21  C7  <1> d          -3.517 208.140 114.299  0.00  0.00     0.049 A 
ATOM     22  C6  <1> d          -2.442 209.108 112.348  0.00  0.00     0.157 A 
ATOM     23  S1  <1> d          -3.976 209.168 113.051  0.00  0.00    -0.075 SA
ENDBRANCH   1   9
BRANCH   5  24
ATOM     24  S2  <1> d         -13.739 207.750 115.387  0.00  0.00     0.073 S 
ATOM     25  O2  <1> d         -14.342 207.353 116.624  0.00  0.00    -0.150 OA
ATOM     26  O3  <1> d         -14.205 208.925 114.715  0.00  0.00    -0.150 OA
BRANCH  24  27
ATOM     27  N4  <1> d         -13.939 206.463 114.360  0.00  0.00    -0.200 N 
ATOM     28  H11 <1> d         -13.624 205.574 114.692  0.00  0.00     0.175 HD
BRANCH  27  29
ATOM     29  C20 <1> d         -14.500 206.489 113.082  0.00  0.00     0.138 A 
ATOM     30  N5  <1> d         -13.595 206.723 111.990  0.00  0.00    -0.239 NA
ATOM     31  C19 <1> d         -14.071 206.932 110.651  0.00  0.00     0.113 A 
ATOM     32  C18 <1> d         -15.514 206.845 110.339  0.00  0.00     0.020 A 
ATOM     33  C17 <1> d         -16.439 206.504 111.444  0.00  0.00     0.005 A 
ATOM     34  C21 <1> d         -15.969 206.323 112.821  0.00  0.00     0.045 A 
ENDBRANCH  27  29
ENDBRANCH  24  27
ENDBRANCH   5  24
TORSDOF 4
ENDMDL
MODEL 8
REMARK VINA RESULT:      -9.2      2.009      2.761
REMARK  4 active torsions:
REMARK  status: ('A' for Active; 'I' for Inactive)
REMARK    1  A    between atoms: C10_14  and  N3_15 
REMARK    2  A    between atoms: C14_19  and  S2_22 
REMARK    3  A    between atoms: N4_25  and  S2_22 
REMARK    4  A    between atoms: N4_25  and  C20_30 
ROOT
ATOM      1  N3  <1> d          -9.232 209.227 114.717  0.00  0.00    -0.320 N 
ATOM      2  C11 <1> d          -8.042 209.107 115.323  0.00  0.00     0.031 A 
ATOM      3  C12 <1> d          -7.822 208.299 116.567  0.00  0.00     0.025 A 
ATOM      4  C13 <1> d          -6.473 208.150 117.099  0.00  0.00     0.030 A 
ATOM      5  C14 <1> d          -5.350 208.884 116.469  0.00  0.00     0.109 A 
ATOM      6  C15 <1> d          -5.550 209.677 115.240  0.00  0.00     0.030 A 
ATOM      7  C16 <1> d          -6.905 209.805 114.675  0.00  0.00     0.025 A 
ATOM      8  H6  <1> d          -9.449 210.130 114.345  0.00  0.00     0.152 HD
ENDROOT
BRANCH   1   9
ATOM      9  C10 <1> d         -10.268 208.174 114.533  0.00  0.00     0.085 C 
ATOM     10  C9  <1> d         -10.733 207.907 113.297  0.00  0.00     0.061 A 
ATOM     11  C1  <1> d         -10.003 208.205 112.015  0.00  0.00     0.250 A 
ATOM     12  C8  <1> d         -12.000 207.350 112.867  0.00  0.00     0.025 A 
ATOM     13  O1  <1> d          -8.910 208.770 111.924  0.00  0.00    -0.270 OA
ATOM     14  N1  <1> d         -10.754 207.773 110.982  0.00  0.00    -0.281 N 
ATOM     15  C2  <1> d         -11.944 207.288 111.422  0.00  0.00     0.043 A 
ATOM     16  H1  <1> d         -10.474 207.804 110.023  0.00  0.00     0.155 HD
ATOM     17  C3  <1> d         -13.096 206.798 110.636  0.00  0.00     0.026 A 
ATOM     18  C4  <1> d         -14.298 206.310 111.322  0.00  0.00     0.031 A 
ATOM     19  C5  <1> d         -14.374 206.374 112.771  0.00  0.00     0.079 A 
ATOM     20  N2  <1> d         -15.388 205.983 113.634  0.00  0.00    -0.247 NA
ATOM     21  C7  <1> d         -13.210 206.917 113.585  0.00  0.00     0.049 A 
ATOM     22  C6  <1> d         -15.069 206.142 114.943  0.00  0.00     0.157 A 
ATOM     23  S1  <1> d         -13.577 206.883 115.225  0.00  0.00    -0.075 SA
ENDBRANCH   1   9
BRANCH   5  24
ATOM     24  S2  <1> d          -3.778 208.780 117.247  0.00  0.00     0.073 S 
ATOM     25  O2  <1> d          -3.750 207.655 118.133  0.00  0.00    -0.150 OA
ATOM     26  O3  <1> d          -2.818 208.875 116.190  0.00  0.00    -0.150 OA
BRANCH  24  27
ATOM     27  N4  <1> d          -3.602 210.115 118.216  0.00  0.00    -0.200 N 
ATOM     28  H11 <1> d          -2.818 210.706 118.024  0.00  0.00     0.175 HD
BRANCH  27  29
ATOM     29  C20 <1> d          -4.431 210.502 119.270  0.00  0.00     0.138 A 
ATOM     30  N5  <1> d          -4.141 209.930 120.556  0.00  0.00    -0.239 NA
ATOM     31  C19 <1> d          -5.016 210.123 121.679  0.00  0.00     0.113 A 
ATOM     32  C18 <1> d          -6.217 210.978 121.564  0.00  0.00     0.020 A 
ATOM     33  C17 <1> d          -6.464 211.650 120.268  0.00  0.00     0.005 A 
ATOM     34  C21 <1> d          -5.597 211.433 119.105  0.00  0.00     0.045 A 
ENDBRANCH  27  29
ENDBRANCH  24  27
ENDBRANCH   5  24
TORSDOF 4
ENDMDL
MODEL 9
REMARK VINA RESULT:      -9.1      3.044      3.955
REMARK  4 active torsions:
REMARK  status: ('A' for Active; 'I' for Inactive)
REMARK    1  A    between atoms: C10_14  and  N3_15 
REMARK    2  A    between atoms: C14_19  and  S2_22 
REMARK    3  A    between atoms: N4_25  and  S2_22 
REMARK    4  A    between atoms: N4_25  and  C20_30 
ROOT
ATOM      1  N3  <1> d         -10.209 208.080 115.091  0.00  0.00    -0.320 N 
ATOM      2  C11 <1> d          -9.875 208.188 116.386  0.00  0.00     0.031 A 
ATOM      3  C12 <1> d         -10.877 208.236 117.500  0.00  0.00     0.025 A 
ATOM      4  C13 <1> d         -10.415 208.256 118.882  0.00  0.00     0.030 A 
ATOM      5  C14 <1> d          -8.964 208.337 119.171  0.00  0.00     0.109 A 
ATOM      6  C15 <1> d          -7.966 208.284 118.085  0.00  0.00     0.030 A 
ATOM      7  C16 <1> d          -8.422 208.228 116.684  0.00  0.00     0.025 A 
ATOM      8  H6  <1> d          -9.661 208.616 114.448  0.00  0.00     0.152 HD
ENDROOT
BRANCH   1   9
ATOM      9  C10 <1> d         -11.298 207.257 114.500  0.00  0.00     0.085 C 
ATOM     10  C9  <1> d         -11.515 207.295 113.171  0.00  0.00     0.061 A 
ATOM     11  C1  <1> d         -10.495 207.698 112.140  0.00  0.00     0.250 A 
ATOM     12  C8  <1> d         -12.716 207.035 112.403  0.00  0.00     0.025 A 
ATOM     13  O1  <1> d          -9.348 208.088 112.376  0.00  0.00    -0.270 OA
ATOM     14  N1  <1> d         -11.051 207.585 110.917  0.00  0.00    -0.281 N 
ATOM     15  C2  <1> d         -12.357 207.226 111.014  0.00  0.00     0.043 A 
ATOM     16  H1  <1> d         -10.568 207.743 110.055  0.00  0.00     0.155 HD
ATOM     17  C3  <1> d         -13.362 207.075 109.941  0.00  0.00     0.026 A 
ATOM     18  C4  <1> d         -14.734 206.671 110.271  0.00  0.00     0.031 A 
ATOM     19  C5  <1> d         -15.112 206.484 111.660  0.00  0.00     0.079 A 
ATOM     20  N2  <1> d         -16.329 206.112 112.216  0.00  0.00    -0.247 NA
ATOM     21  C7  <1> d         -14.096 206.678 112.774  0.00  0.00     0.049 A 
ATOM     22  C6  <1> d         -16.283 205.979 113.566  0.00  0.00     0.157 A 
ATOM     23  S1  <1> d         -14.809 206.409 114.272  0.00  0.00    -0.075 SA
ENDBRANCH   1   9
BRANCH   5  24
ATOM     24  S2  <1> d          -8.481 208.510 120.852  0.00  0.00     0.073 S 
ATOM     25  O2  <1> d          -9.091 209.679 121.412  0.00  0.00    -0.150 OA
ATOM     26  O3  <1> d          -8.713 207.232 121.452  0.00  0.00    -0.150 OA
BRANCH  24  27
ATOM     27  N4  <1> d          -6.848 208.800 120.884  0.00  0.00    -0.200 N 
ATOM     28  H11 <1> d          -6.251 208.003 120.795  0.00  0.00     0.175 HD
BRANCH  27  29
ATOM     29  C20 <1> d          -6.219 210.038 121.023  0.00  0.00     0.138 A 
ATOM     30  N5  <1> d          -6.005 210.501 122.367  0.00  0.00    -0.239 NA
ATOM     31  C19 <1> d          -5.517 211.825 122.638  0.00  0.00     0.113 A 
ATOM     32  C18 <1> d          -5.151 212.737 121.532  0.00  0.00     0.020 A 
ATOM     33  C17 <1> d          -5.275 212.227 120.148  0.00  0.00     0.005 A 
ATOM     34  C21 <1> d          -5.805 210.890 119.858  0.00  0.00     0.045 A 
ENDBRANCH  27  29
ENDBRANCH  24  27
ENDBRANCH   5  24
TORSDOF 4
ENDMDL
MODEL 10
REMARK VINA RESULT:      -9.0      4.097      5.101
REMARK  4 active torsions:
REMARK  status: ('A' for Active; 'I' for Inactive)
REMARK    1  A    between atoms: C10_14  and  N3_15 
REMARK    2  A    between atoms: C14_19  and  S2_22 
REMARK    3  A    between atoms: N4_25  and  S2_22 
REMARK    4  A    between atoms: N4_25  and  C20_30 
ROOT
ATOM      1  N3  <1> d         -11.796 208.052 115.967  0.00  0.00    -0.320 N 
ATOM      2  C11 <1> d         -11.154 207.640 117.070  0.00  0.00     0.031 A 
ATOM      3  C12 <1> d         -11.702 206.610 118.013  0.00  0.00     0.025 A 
ATOM      4  C13 <1> d         -10.888 206.155 119.133  0.00  0.00     0.030 A 
ATOM      5  C14 <1> d          -9.574 206.791 119.392  0.00  0.00     0.109 A 
ATOM      6  C15 <1> d          -9.020 207.801 118.469  0.00  0.00     0.030 A 
ATOM      7  C16 <1> d          -9.821 208.242 117.313  0.00  0.00     0.025 A 
ATOM      8  H6  <1> d         -11.729 209.028 115.756  0.00  0.00     0.152 HD
ENDROOT
BRANCH   1   9
ATOM      9  C10 <1> d         -12.596 207.228 115.020  0.00  0.00     0.085 C 
ATOM     10  C9  <1> d         -12.330 207.283 113.701  0.00  0.00     0.061 A 
ATOM     11  C1  <1> d         -11.017 207.710 113.101  0.00  0.00     0.250 A 
ATOM     12  C8  <1> d         -13.179 207.024 112.555  0.00  0.00     0.025 A 
ATOM     13  O1  <1> d         -10.032 208.105 113.731  0.00  0.00    -0.270 OA
ATOM     14  N1  <1> d         -11.104 207.609 111.759  0.00  0.00    -0.281 N 
ATOM     15  C2  <1> d         -12.356 207.237 111.385  0.00  0.00     0.043 A 
ATOM     16  H1  <1> d         -10.350 207.783 111.125  0.00  0.00     0.155 HD
ATOM     17  C3  <1> d         -12.915 207.094 110.024  0.00  0.00     0.026 A 
ATOM     18  C4  <1> d         -14.310 206.673 109.845  0.00  0.00     0.031 A 
ATOM     19  C5  <1> d         -15.151 206.463 111.009  0.00  0.00     0.079 A 
ATOM     20  N2  <1> d         -16.480 206.072 111.095  0.00  0.00    -0.247 NA
ATOM     21  C7  <1> d         -14.596 206.650 112.411  0.00  0.00     0.049 A 
ATOM     22  C6  <1> d         -16.913 205.921 112.373  0.00  0.00     0.157 A 
ATOM     23  S1  <1> d         -15.789 206.353 113.558  0.00  0.00    -0.075 SA
ENDBRANCH   1   9
BRANCH   5  24
ATOM     24  S2  <1> d          -8.712 206.304 120.843  0.00  0.00     0.073 S 
ATOM     25  O2  <1> d          -9.096 207.142 121.939  0.00  0.00    -0.150 OA
ATOM     26  O3  <1> d          -8.889 204.887 120.938  0.00  0.00    -0.150 OA
BRANCH  24  27
ATOM     27  N4  <1> d          -7.098 206.600 120.599  0.00  0.00    -0.200 N 
ATOM     28  H11 <1> d          -6.753 207.483 120.918  0.00  0.00     0.175 HD
BRANCH  27  29
ATOM     29  C20 <1> d          -6.171 205.750 119.995  0.00  0.00     0.138 A 
ATOM     30  N5  <1> d          -5.920 205.966 118.596  0.00  0.00    -0.239 NA
ATOM     31  C19 <1> d          -5.113 205.058 117.828  0.00  0.00     0.113 A 
ATOM     32  C18 <1> d          -4.455 203.901 118.473  0.00  0.00     0.020 A 
ATOM     33  C17 <1> d          -4.630 203.733 119.933  0.00  0.00     0.005 A 
ATOM     34  C21 <1> d          -5.479 204.633 120.721  0.00  0.00     0.045 A 
ENDBRANCH  27  29
ENDBRANCH  24  27
ENDBRANCH   5  24
TORSDOF 4
ENDMDL
MODEL 11
REMARK VINA RESULT:      -9.0      3.344     10.803
REMARK  4 active torsions:
REMARK  status: ('A' for Active; 'I' for Inactive)
REMARK    1  A    between atoms: C10_14  and  N3_15 
REMARK    2  A    between atoms: C14_19  and  S2_22 
REMARK    3  A    between atoms: N4_25  and  S2_22 
REMARK    4  A    between atoms: N4_25  and  C20_30 
ROOT
ATOM      1  N3  <1> d          -9.746 207.114 119.089  0.00  0.00    -0.320 N 
ATOM      2  C11 <1> d         -10.743 206.966 118.204  0.00  0.00     0.031 A 
ATOM      3  C12 <1> d         -10.778 207.654 116.872  0.00  0.00     0.025 A 
ATOM      4  C13 <1> d         -11.855 207.356 115.936  0.00  0.00     0.030 A 
ATOM      5  C14 <1> d         -12.961 206.460 116.351  0.00  0.00     0.109 A 
ATOM      6  C15 <1> d         -12.936 205.770 117.656  0.00  0.00     0.030 A 
ATOM      7  C16 <1> d         -11.832 206.038 118.595  0.00  0.00     0.025 A 
ATOM      8  H6  <1> d         -10.015 207.161 120.052  0.00  0.00     0.152 HD
ENDROOT
BRANCH   1   9
ATOM      9  C10 <1> d          -8.289 207.216 118.808  0.00  0.00     0.085 C 
ATOM     10  C9  <1> d          -7.574 208.220 119.352  0.00  0.00     0.061 A 
ATOM     11  C1  <1> d          -7.960 208.984 120.590  0.00  0.00     0.250 A 
ATOM     12  C8  <1> d          -6.347 208.852 118.909  0.00  0.00     0.025 A 
ATOM     13  O1  <1> d          -8.996 208.824 121.241  0.00  0.00    -0.270 OA
ATOM     14  N1  <1> d          -6.995 209.888 120.856  0.00  0.00    -0.281 N 
ATOM     15  C2  <1> d          -6.041 209.871 119.889  0.00  0.00     0.043 A 
ATOM     16  H1  <1> d          -6.984 210.488 121.655  0.00  0.00     0.155 HD
ATOM     17  C3  <1> d          -4.861 210.747 119.734  0.00  0.00     0.026 A 
ATOM     18  C4  <1> d          -3.946 210.551 118.603  0.00  0.00     0.031 A 
ATOM     19  C5  <1> d          -4.243 209.539 117.606  0.00  0.00     0.079 A 
ATOM     20  N2  <1> d          -3.544 209.172 116.464  0.00  0.00    -0.247 NA
ATOM     21  C7  <1> d          -5.478 208.662 117.736  0.00  0.00     0.049 A 
ATOM     22  C6  <1> d          -4.106 208.128 115.804  0.00  0.00     0.157 A 
ATOM     23  S1  <1> d          -5.576 207.593 116.442  0.00  0.00    -0.075 SA
ENDBRANCH   1   9
BRANCH   5  24
ATOM     24  S2  <1> d         -14.303 206.261 115.234  0.00  0.00     0.073 S 
ATOM     25  O2  <1> d         -15.111 205.151 115.642  0.00  0.00    -0.150 OA
ATOM     26  O3  <1> d         -14.892 207.558 115.106  0.00  0.00    -0.150 OA
BRANCH  24  27
ATOM     27  N4  <1> d         -13.677 205.837 113.758  0.00  0.00    -0.200 N 
ATOM     28  H11 <1> d         -12.822 205.318 113.767  0.00  0.00     0.175 HD
BRANCH  27  29
ATOM     29  C20 <1> d         -14.215 206.128 112.504  0.00  0.00     0.138 A 
ATOM     30  N5  <1> d         -13.287 206.553 111.491  0.00  0.00    -0.239 NA
ATOM     31  C19 <1> d         -13.737 207.035 110.214  0.00  0.00     0.113 A 
ATOM     32  C18 <1> d         -15.176 207.045 109.873  0.00  0.00     0.020 A 
ATOM     33  C17 <1> d         -16.126 206.513 110.877  0.00  0.00     0.005 A 
ATOM     34  C21 <1> d         -15.683 206.052 112.196  0.00  0.00     0.045 A 
ENDBRANCH  27  29
ENDBRANCH  24  27
ENDBRANCH   5  24
TORSDOF 4
ENDMDL
MODEL 12
REMARK VINA RESULT:      -8.9      4.843      5.945
REMARK  4 active torsions:
REMARK  status: ('A' for Active; 'I' for Inactive)
REMARK    1  A    between atoms: C10_14  and  N3_15 
REMARK    2  A    between atoms: C14_19  and  S2_22 
REMARK    3  A    between atoms: N4_25  and  S2_22 
REMARK    4  A    between atoms: N4_25  and  C20_30 
ROOT
ATOM      1  N3  <1> d         -11.954 208.004 116.235  0.00  0.00    -0.320 N 
ATOM      2  C11 <1> d         -11.250 207.570 117.292  0.00  0.00     0.031 A 
ATOM      3  C12 <1> d         -11.685 206.435 118.169  0.00  0.00     0.025 A 
ATOM      4  C13 <1> d         -10.806 205.973 119.236  0.00  0.00     0.030 A 
ATOM      5  C14 <1> d          -9.543 206.696 119.512  0.00  0.00     0.109 A 
ATOM      6  C15 <1> d          -9.099 207.811 118.652  0.00  0.00     0.030 A 
ATOM      7  C16 <1> d          -9.964 208.263 117.549  0.00  0.00     0.025 A 
ATOM      8  H6  <1> d         -11.973 208.994 116.094  0.00  0.00     0.152 HD
ENDROOT
BRANCH   1   9
ATOM      9  C10 <1> d         -12.709 207.184 115.249  0.00  0.00     0.085 C 
ATOM     10  C9  <1> d         -12.387 207.250 113.943  0.00  0.00     0.061 A 
ATOM     11  C1  <1> d         -11.051 207.686 113.403  0.00  0.00     0.250 A 
ATOM     12  C8  <1> d         -13.186 206.997 112.760  0.00  0.00     0.025 A 
ATOM     13  O1  <1> d         -10.096 208.080 114.077  0.00  0.00    -0.270 OA
ATOM     14  N1  <1> d         -11.081 207.595 112.057  0.00  0.00    -0.281 N 
ATOM     15  C2  <1> d         -12.314 207.222 111.628  0.00  0.00     0.043 A 
ATOM     16  H1  <1> d         -10.301 207.777 111.458  0.00  0.00     0.155 HD
ATOM     17  C3  <1> d         -12.814 207.087 110.243  0.00  0.00     0.026 A 
ATOM     18  C4  <1> d         -14.198 206.663 110.002  0.00  0.00     0.031 A 
ATOM     19  C5  <1> d         -15.088 206.441 111.127  0.00  0.00     0.079 A 
ATOM     20  N2  <1> d         -16.418 206.045 111.153  0.00  0.00    -0.247 NA
ATOM     21  C7  <1> d         -14.594 206.619 112.553  0.00  0.00     0.049 A 
ATOM     22  C6  <1> d         -16.904 205.882 112.410  0.00  0.00     0.157 A 
ATOM     23  S1  <1> d         -15.834 206.310 113.645  0.00  0.00    -0.075 SA
ENDBRANCH   1   9
BRANCH   5  24
ATOM     24  S2  <1> d          -8.604 206.182 120.905  0.00  0.00     0.073 S 
ATOM     25  O2  <1> d          -8.304 204.786 120.798  0.00  0.00    -0.150 OA
ATOM     26  O3  <1> d          -7.538 207.130 121.021  0.00  0.00    -0.150 OA
BRANCH  24  27
ATOM     27  N4  <1> d          -9.565 206.330 122.249  0.00  0.00    -0.200 N 
ATOM     28  H11 <1> d          -9.721 207.258 122.587  0.00  0.00     0.175 HD
BRANCH  27  29
ATOM     29  C20 <1> d         -10.180 205.298 122.958  0.00  0.00     0.138 A 
ATOM     30  N5  <1> d          -9.516 204.859 124.156  0.00  0.00    -0.239 NA
ATOM     31  C19 <1> d          -9.961 203.702 124.881  0.00  0.00     0.113 A 
ATOM     32  C18 <1> d         -11.166 202.958 124.454  0.00  0.00     0.020 A 
ATOM     33  C17 <1> d         -11.910 203.467 123.279  0.00  0.00     0.005 A 
ATOM     34  C21 <1> d         -11.446 204.626 122.510  0.00  0.00     0.045 A 
ENDBRANCH  27  29
ENDBRANCH  24  27
ENDBRANCH   5  24
TORSDOF 4
ENDMDL
MODEL 13
REMARK VINA RESULT:      -8.9      2.478      2.957
REMARK  4 active torsions:
REMARK  status: ('A' for Active; 'I' for Inactive)
REMARK    1  A    between atoms: C10_14  and  N3_15 
REMARK    2  A    between atoms: C14_19  and  S2_22 
REMARK    3  A    between atoms: N4_25  and  S2_22 
REMARK    4  A    between atoms: N4_25  and  C20_30 
ROOT
ATOM      1  N3  <1> d          -9.733 208.763 113.564  0.00  0.00    -0.320 N 
ATOM      2  C11 <1> d          -8.694 208.873 114.404  0.00  0.00     0.031 A 
ATOM      3  C12 <1> d          -8.786 208.611 115.877  0.00  0.00     0.025 A 
ATOM      4  C13 <1> d          -7.580 208.662 116.694  0.00  0.00     0.030 A 
ATOM      5  C14 <1> d          -6.296 209.078 116.082  0.00  0.00     0.109 A 
ATOM      6  C15 <1> d          -6.189 209.334 114.632  0.00  0.00     0.030 A 
ATOM      7  C16 <1> d          -7.396 209.249 113.791  0.00  0.00     0.025 A 
ATOM      8  H6  <1> d          -9.792 209.453 112.842  0.00  0.00     0.152 HD
ENDROOT
BRANCH   1   9
ATOM      9  C10 <1> d         -10.810 207.735 113.580  0.00  0.00     0.085 C 
ATOM     10  C9  <1> d         -11.489 207.465 112.450  0.00  0.00     0.061 A 
ATOM     11  C1  <1> d         -10.987 207.728 111.055  0.00  0.00     0.250 A 
ATOM     12  C8  <1> d         -12.825 206.936 112.255  0.00  0.00     0.025 A 
ATOM     13  O1  <1> d          -9.914 208.263 110.765  0.00  0.00    -0.270 OA
ATOM     14  N1  <1> d         -11.917 207.302 110.176  0.00  0.00    -0.281 N 
ATOM     15  C2  <1> d         -13.023 206.854 110.825  0.00  0.00     0.043 A 
ATOM     16  H1  <1> d         -11.807 207.314 109.182  0.00  0.00     0.155 HD
ATOM     17  C3  <1> d         -14.305 206.383 110.259  0.00  0.00     0.026 A 
ATOM     18  C4  <1> d         -15.380 205.936 111.152  0.00  0.00     0.031 A 
ATOM     19  C5  <1> d         -15.201 206.019 112.590  0.00  0.00     0.079 A 
ATOM     20  N2  <1> d         -16.058 205.666 113.623  0.00  0.00    -0.247 NA
ATOM     21  C7  <1> d         -13.901 206.542 113.180  0.00  0.00     0.049 A 
ATOM     22  C6  <1> d         -15.511 205.833 114.854  0.00  0.00     0.157 A 
ATOM     23  S1  <1> d         -13.977 206.539 114.859  0.00  0.00    -0.075 SA
ENDBRANCH   1   9
BRANCH   5  24
ATOM     24  S2  <1> d          -4.913 209.266 117.150  0.00  0.00     0.073 S 
ATOM     25  O2  <1> d          -3.722 208.839 116.480  0.00  0.00    -0.150 OA
ATOM     26  O3  <1> d          -5.000 210.600 117.661  0.00  0.00    -0.150 OA
BRANCH  24  27
ATOM     27  N4  <1> d          -5.109 208.219 118.422  0.00  0.00    -0.200 N 
ATOM     28  H11 <1> d          -5.565 208.583 119.234  0.00  0.00     0.175 HD
BRANCH  27  29
ATOM     29  C20 <1> d          -4.704 206.885 118.480  0.00  0.00     0.138 A 
ATOM     30  N5  <1> d          -3.525 206.606 119.255  0.00  0.00    -0.239 NA
ATOM     31  C19 <1> d          -2.919 205.304 119.259  0.00  0.00     0.113 A 
ATOM     32  C18 <1> d          -3.531 204.182 118.514  0.00  0.00     0.020 A 
ATOM     33  C17 <1> d          -4.800 204.441 117.797  0.00  0.00     0.005 A 
ATOM     34  C21 <1> d          -5.409 205.774 117.757  0.00  0.00     0.045 A 
ENDBRANCH  27  29
ENDBRANCH  24  27
ENDBRANCH   5  24
TORSDOF 4
ENDMDL
MODEL 14
REMARK VINA RESULT:      -8.9      3.858      4.861
REMARK  4 active torsions:
REMARK  status: ('A' for Active; 'I' for Inactive)
REMARK    1  A    between atoms: C10_14  and  N3_15 
REMARK    2  A    between atoms: C14_19  and  S2_22 
REMARK    3  A    between atoms: N4_25  and  S2_22 
REMARK    4  A    between atoms: N4_25  and  C20_30 
ROOT
ATOM      1  N3  <1> d         -12.136 208.043 116.263  0.00  0.00    -0.320 N 
ATOM      2  C11 <1> d         -11.436 207.621 117.327  0.00  0.00     0.031 A 
ATOM      3  C12 <1> d         -11.848 206.462 118.184  0.00  0.00     0.025 A 
ATOM      4  C13 <1> d         -10.973 206.017 119.261  0.00  0.00     0.030 A 
ATOM      5  C14 <1> d          -9.739 206.779 119.566  0.00  0.00     0.109 A 
ATOM      6  C15 <1> d          -9.317 207.917 118.727  0.00  0.00     0.030 A 
ATOM      7  C16 <1> d         -10.178 208.353 117.613  0.00  0.00     0.025 A 
ATOM      8  H6  <1> d         -12.185 209.034 116.132  0.00  0.00     0.152 HD
ENDROOT
BRANCH   1   9
ATOM      9  C10 <1> d         -12.847 207.211 115.255  0.00  0.00     0.085 C 
ATOM     10  C9  <1> d         -12.482 207.277 113.961  0.00  0.00     0.061 A 
ATOM     11  C1  <1> d         -11.134 207.728 113.464  0.00  0.00     0.250 A 
ATOM     12  C8  <1> d         -13.237 207.009 112.752  0.00  0.00     0.025 A 
ATOM     13  O1  <1> d         -10.207 208.137 114.168  0.00  0.00    -0.270 OA
ATOM     14  N1  <1> d         -11.117 207.632 112.119  0.00  0.00    -0.281 N 
ATOM     15  C2  <1> d         -12.330 207.241 111.649  0.00  0.00     0.043 A 
ATOM     16  H1  <1> d         -10.320 207.822 111.545  0.00  0.00     0.155 HD
ATOM     17  C3  <1> d         -12.781 207.095 110.249  0.00  0.00     0.026 A 
ATOM     18  C4  <1> d         -14.151 206.652 109.963  0.00  0.00     0.031 A 
ATOM     19  C5  <1> d         -15.076 206.423 111.058  0.00  0.00     0.079 A 
ATOM     20  N2  <1> d         -16.401 206.009 111.041  0.00  0.00    -0.247 NA
ATOM     21  C7  <1> d         -14.632 206.612 112.500  0.00  0.00     0.049 A 
ATOM     22  C6  <1> d         -16.926 205.845 112.282  0.00  0.00     0.157 A 
ATOM     23  S1  <1> d         -15.904 206.290 113.550  0.00  0.00    -0.075 SA
ENDBRANCH   1   9
BRANCH   5  24
ATOM     24  S2  <1> d          -8.807 206.280 120.970  0.00  0.00     0.073 S 
ATOM     25  O2  <1> d          -9.397 206.817 122.159  0.00  0.00    -0.150 OA
ATOM     26  O3  <1> d          -8.640 204.865 120.838  0.00  0.00    -0.150 OA
BRANCH  24  27
ATOM     27  N4  <1> d          -7.307 206.982 120.860  0.00  0.00    -0.200 N 
ATOM     28  H11 <1> d          -6.676 206.585 120.194  0.00  0.00     0.175 HD
BRANCH  27  29
ATOM     29  C20 <1> d          -6.833 208.067 121.598  0.00  0.00     0.138 A 
ATOM     30  N5  <1> d          -6.261 207.768 122.883  0.00  0.00    -0.239 NA
ATOM     31  C19 <1> d          -5.889 208.808 123.801  0.00  0.00     0.113 A 
ATOM     32  C18 <1> d          -6.020 210.232 123.424  0.00  0.00     0.020 A 
ATOM     33  C17 <1> d          -6.514 210.543 122.063  0.00  0.00     0.005 A 
ATOM     34  C21 <1> d          -6.931 209.490 121.131  0.00  0.00     0.045 A 
ENDBRANCH  27  29
ENDBRANCH  24  27
ENDBRANCH   5  24
TORSDOF 4
ENDMDL
MODEL 15
REMARK VINA RESULT:      -8.7      2.884     10.650
REMARK  4 active torsions:
REMARK  status: ('A' for Active; 'I' for Inactive)
REMARK    1  A    between atoms: C10_14  and  N3_15 
REMARK    2  A    between atoms: C14_19  and  S2_22 
REMARK    3  A    between atoms: N4_25  and  S2_22 
REMARK    4  A    between atoms: N4_25  and  C20_30 
ROOT
ATOM      1  N3  <1> d          -6.698 209.371 115.402  0.00  0.00    -0.320 N 
ATOM      2  C11 <1> d          -7.968 208.940 115.397  0.00  0.00     0.031 A 
ATOM      3  C12 <1> d          -8.694 208.484 116.627  0.00  0.00     0.025 A 
ATOM      4  C13 <1> d         -10.104 208.125 116.539  0.00  0.00     0.030 A 
ATOM      5  C14 <1> d         -10.776 208.111 115.218  0.00  0.00     0.109 A 
ATOM      6  C15 <1> d         -10.076 208.563 114.000  0.00  0.00     0.030 A 
ATOM      7  C16 <1> d          -8.660 208.962 114.085  0.00  0.00     0.025 A 
ATOM      8  H6  <1> d          -6.135 209.093 114.623  0.00  0.00     0.152 HD
ENDROOT
BRANCH   1   9
ATOM      9  C10 <1> d          -6.029 210.214 116.429  0.00  0.00     0.085 C 
ATOM     10  C9  <1> d          -4.852 209.818 116.952  0.00  0.00     0.061 A 
ATOM     11  C1  <1> d          -3.887 208.870 116.291  0.00  0.00     0.250 A 
ATOM     12  C8  <1> d          -4.238 210.119 118.230  0.00  0.00     0.025 A 
ATOM     13  O1  <1> d          -4.065 208.299 115.212  0.00  0.00    -0.270 OA
ATOM     14  N1  <1> d          -2.807 208.732 117.085  0.00  0.00    -0.281 N 
ATOM     15  C2  <1> d          -2.971 209.421 118.245  0.00  0.00     0.043 A 
ATOM     16  H1  <1> d          -1.995 208.197 116.853  0.00  0.00     0.155 HD
ATOM     17  C3  <1> d          -2.085 209.476 119.426  0.00  0.00     0.026 A 
ATOM     18  C4  <1> d          -2.459 210.295 120.586  0.00  0.00     0.031 A 
ATOM     19  C5  <1> d          -3.730 210.995 120.590  0.00  0.00     0.079 A 
ATOM     20  N2  <1> d          -4.298 211.816 121.555  0.00  0.00    -0.247 NA
ATOM     21  C7  <1> d          -4.667 210.909 119.396  0.00  0.00     0.049 A 
ATOM     22  C6  <1> d          -5.487 212.348 121.173  0.00  0.00     0.157 A 
ATOM     23  S1  <1> d          -6.061 211.804 119.681  0.00  0.00    -0.075 SA
ENDBRANCH   1   9
BRANCH   5  24
ATOM     24  S2  <1> d         -12.432 207.524 115.160  0.00  0.00     0.073 S 
ATOM     25  O2  <1> d         -12.801 206.989 116.436  0.00  0.00    -0.150 OA
ATOM     26  O3  <1> d         -13.198 208.590 114.589  0.00  0.00    -0.150 OA
BRANCH  24  27
ATOM     27  N4  <1> d         -12.480 206.242 114.108  0.00  0.00    -0.200 N 
ATOM     28  H11 <1> d         -11.893 205.463 114.326  0.00  0.00     0.175 HD
BRANCH  27  29
ATOM     29  C20 <1> d         -13.252 206.136 112.950  0.00  0.00     0.138 A 
ATOM     30  N5  <1> d         -12.719 206.751 111.765  0.00  0.00    -0.239 NA
ATOM     31  C19 <1> d         -13.490 206.850 110.557  0.00  0.00     0.113 A 
ATOM     32  C18 <1> d         -14.842 206.257 110.472  0.00  0.00     0.020 A 
ATOM     33  C17 <1> d         -15.354 205.535 111.659  0.00  0.00     0.005 A 
ATOM     34  C21 <1> d         -14.591 205.458 112.908  0.00  0.00     0.045 A 
ENDBRANCH  27  29
ENDBRANCH  24  27
ENDBRANCH   5  24
TORSDOF 4
ENDMDL
