MODEL 1
REMARK VINA RESULT:     -11.7      0.000      0.000
REMARK  4 active torsions:
REMARK  status: ('A' for Active; 'I' for Inactive)
REMARK    1  A    between atoms: C10_14  and  N3_15 
REMARK    2  A    between atoms: C14_19  and  S2_22 
REMARK    3  A    between atoms: N4_25  and  S2_22 
REMARK    4  A    between atoms: N4_25  and  C20_30 
ROOT
ATOM      1  N3  <1> d         -10.043 207.923 111.678  0.00  0.00    -0.320 N 
ATOM      2  C11 <1> d          -9.097 208.453 112.468  0.00  0.00     0.031 A 
ATOM      3  C12 <1> d          -9.369 208.998 113.838  0.00  0.00     0.025 A 
ATOM      4  C13 <1> d          -8.259 209.465 114.659  0.00  0.00     0.030 A 
ATOM      5  C14 <1> d          -6.890 209.497 114.093  0.00  0.00     0.109 A 
ATOM      6  C15 <1> d          -6.606 208.958 112.749  0.00  0.00     0.030 A 
ATOM      7  C16 <1> d          -7.717 208.450 111.924  0.00  0.00     0.025 A 
ATOM      8  H6  <1> d          -9.974 208.134 110.703  0.00  0.00     0.152 HD
ENDROOT
BRANCH   1   9
ATOM      9  C10 <1> d         -11.184 207.057 112.084  0.00  0.00     0.085 C 
ATOM     10  C9  <1> d         -12.306 207.042 111.338  0.00  0.00     0.061 A 
ATOM     11  C1  <1> d         -12.383 207.426 109.885  0.00  0.00     0.250 A 
ATOM     12  C8  <1> d         -13.675 206.730 111.699  0.00  0.00     0.025 A 
ATOM     13  O1  <1> d         -11.446 207.846 109.200  0.00  0.00    -0.270 OA
ATOM     14  N1  <1> d         -13.653 207.257 109.462  0.00  0.00    -0.281 N 
ATOM     15  C2  <1> d         -14.455 206.876 110.490  0.00  0.00     0.043 A 
ATOM     16  H1  <1> d         -13.961 207.392 108.521  0.00  0.00     0.155 HD
ATOM     17  C3  <1> d         -15.918 206.667 110.498  0.00  0.00     0.026 A 
ATOM     18  C4  <1> d         -16.592 206.248 111.733  0.00  0.00     0.031 A 
ATOM     19  C5  <1> d         -15.825 206.105 112.957  0.00  0.00     0.079 A 
ATOM     20  N2  <1> d         -16.230 205.730 114.230  0.00  0.00    -0.247 NA
ATOM     21  C7  <1> d         -14.327 206.361 112.967  0.00  0.00     0.049 A 
ATOM     22  C6  <1> d         -15.205 205.649 115.116  0.00  0.00     0.157 A 
ATOM     23  S1  <1> d         -13.704 206.133 114.511  0.00  0.00    -0.075 SA
ENDBRANCH   1   9
BRANCH   5  24
ATOM     24  S2  <1> d          -5.623 210.211 115.081  0.00  0.00     0.073 S 
ATOM     25  O2  <1> d          -4.366 210.108 114.403  0.00  0.00    -0.150 OA
ATOM     26  O3  <1> d          -6.117 211.497 115.468  0.00  0.00    -0.150 OA
BRANCH  24  27
ATOM     27  N4  <1> d          -5.468 209.291 116.452  0.00  0.00    -0.200 N 
ATOM     28  H11 <1> d          -5.061 208.385 116.339  0.00  0.00     0.175 HD
BRANCH  27  29
ATOM     29  C20 <1> d          -5.846 209.646 117.748  0.00  0.00     0.138 A 
ATOM     30  N5  <1> d          -6.786 208.777 118.402  0.00  0.00    -0.239 NA
ATOM     31  C19 <1> d          -7.373 209.121 119.667  0.00  0.00     0.113 A 
ATOM     32  C18 <1> d          -6.975 210.357 120.375  0.00  0.00     0.020 A 
ATOM     33  C17 <1> d          -5.932 211.204 119.751  0.00  0.00     0.005 A 
ATOM     34  C21 <1> d          -5.352 210.881 118.444  0.00  0.00     0.045 A 
ENDBRANCH  27  29
ENDBRANCH  24  27
ENDBRANCH   5  24
TORSDOF 4
ENDMDL
MODEL 2
REMARK VINA RESULT:     -11.1      1.283      1.710
REMARK  4 active torsions:
REMARK  status: ('A' for Active; 'I' for Inactive)
REMARK    1  A    between atoms: C10_14  and  N3_15 
REMARK    2  A    between atoms: C14_19  and  S2_22 
REMARK    3  A    between atoms: N4_25  and  S2_22 
REMARK    4  A    between atoms: N4_25  and  C20_30 
ROOT
ATOM      1  N3  <1> d         -10.017 207.845 111.751  0.00  0.00    -0.320 N 
ATOM      2  C11 <1> d          -9.069 208.396 112.523  0.00  0.00     0.031 A 
ATOM      3  C12 <1> d          -9.340 208.994 113.871  0.00  0.00     0.025 A 
ATOM      4  C13 <1> d          -8.229 209.483 114.678  0.00  0.00     0.030 A 
ATOM      5  C14 <1> d          -6.857 209.483 114.116  0.00  0.00     0.109 A 
ATOM      6  C15 <1> d          -6.575 208.891 112.794  0.00  0.00     0.030 A 
ATOM      7  C16 <1> d          -7.687 208.362 111.984  0.00  0.00     0.025 A 
ATOM      8  H6  <1> d          -9.943 208.019 110.769  0.00  0.00     0.152 HD
ENDROOT
BRANCH   1   9
ATOM      9  C10 <1> d         -11.166 207.004 112.185  0.00  0.00     0.085 C 
ATOM     10  C9  <1> d         -12.289 206.976 111.442  0.00  0.00     0.061 A 
ATOM     11  C1  <1> d         -12.364 207.315 109.977  0.00  0.00     0.250 A 
ATOM     12  C8  <1> d         -13.660 206.690 111.814  0.00  0.00     0.025 A 
ATOM     13  O1  <1> d         -11.424 207.703 109.278  0.00  0.00    -0.270 OA
ATOM     14  N1  <1> d         -13.636 207.145 109.561  0.00  0.00    -0.281 N 
ATOM     15  C2  <1> d         -14.440 206.805 110.601  0.00  0.00     0.043 A 
ATOM     16  H1  <1> d         -13.944 207.253 108.616  0.00  0.00     0.155 HD
ATOM     17  C3  <1> d         -15.906 206.611 110.617  0.00  0.00     0.026 A 
ATOM     18  C4  <1> d         -16.583 206.239 111.865  0.00  0.00     0.031 A 
ATOM     19  C5  <1> d         -15.815 206.128 113.093  0.00  0.00     0.079 A 
ATOM     20  N2  <1> d         -16.223 205.798 114.378  0.00  0.00    -0.247 NA
ATOM     21  C7  <1> d         -14.314 206.368 113.093  0.00  0.00     0.049 A 
ATOM     22  C6  <1> d         -15.198 205.734 115.265  0.00  0.00     0.157 A 
ATOM     23  S1  <1> d         -13.692 206.184 114.644  0.00  0.00    -0.075 SA
ENDBRANCH   1   9
BRANCH   5  24
ATOM     24  S2  <1> d          -5.588 210.223 115.079  0.00  0.00     0.073 S 
ATOM     25  O2  <1> d          -4.361 210.228 114.341  0.00  0.00    -0.150 OA
ATOM     26  O3  <1> d          -6.135 211.457 115.554  0.00  0.00    -0.150 OA
BRANCH  24  27
ATOM     27  N4  <1> d          -5.314 209.249 116.394  0.00  0.00    -0.200 N 
ATOM     28  H11 <1> d          -5.966 208.505 116.542  0.00  0.00     0.175 HD
BRANCH  27  29
ATOM     29  C20 <1> d          -4.271 209.356 117.315  0.00  0.00     0.138 A 
ATOM     30  N5  <1> d          -4.462 210.289 118.392  0.00  0.00    -0.239 NA
ATOM     31  C19 <1> d          -3.401 210.607 119.307  0.00  0.00     0.113 A 
ATOM     32  C18 <1> d          -2.090 209.929 119.211  0.00  0.00     0.020 A 
ATOM     33  C17 <1> d          -1.924 208.895 118.165  0.00  0.00     0.005 A 
ATOM     34  C21 <1> d          -2.987 208.587 117.204  0.00  0.00     0.045 A 
ENDBRANCH  27  29
ENDBRANCH  24  27
ENDBRANCH   5  24
TORSDOF 4
ENDMDL
MODEL 3
REMARK VINA RESULT:     -10.1      5.629     10.159
REMARK  4 active torsions:
REMARK  status: ('A' for Active; 'I' for Inactive)
REMARK    1  A    between atoms: C10_14  and  N3_15 
REMARK    2  A    between atoms: C14_19  and  S2_22 
REMARK    3  A    between atoms: N4_25  and  S2_22 
REMARK    4  A    between atoms: N4_25  and  C20_30 
ROOT
ATOM      1  N3  <1> d         -13.103 206.962 116.622  0.00  0.00    -0.320 N 
ATOM      2  C11 <1> d         -13.831 206.000 117.209  0.00  0.00     0.031 A 
ATOM      3  C12 <1> d         -14.615 204.973 116.449  0.00  0.00     0.025 A 
ATOM      4  C13 <1> d         -15.298 203.908 117.173  0.00  0.00     0.030 A 
ATOM      5  C14 <1> d         -15.299 203.912 118.655  0.00  0.00     0.109 A 
ATOM      6  C15 <1> d         -14.526 204.912 119.416  0.00  0.00     0.030 A 
ATOM      7  C16 <1> d         -13.804 205.973 118.692  0.00  0.00     0.025 A 
ATOM      8  H6  <1> d         -13.125 207.861 117.061  0.00  0.00     0.152 HD
ENDROOT
BRANCH   1   9
ATOM      9  C10 <1> d         -12.268 206.848 115.396  0.00  0.00     0.085 C 
ATOM     10  C9  <1> d         -11.220 207.677 115.225  0.00  0.00     0.061 A 
ATOM     11  C1  <1> d         -10.494 208.392 116.333  0.00  0.00     0.250 A 
ATOM     12  C8  <1> d         -10.567 208.135 114.015  0.00  0.00     0.025 A 
ATOM     13  O1  <1> d         -10.788 208.351 117.531  0.00  0.00    -0.270 OA
ATOM     14  N1  <1> d          -9.483 209.104 115.795  0.00  0.00    -0.281 N 
ATOM     15  C2  <1> d          -9.496 209.010 114.440  0.00  0.00     0.043 A 
ATOM     16  H1  <1> d          -8.814 209.629 116.322  0.00  0.00     0.155 HD
ATOM     17  C3  <1> d          -8.633 209.693 113.453  0.00  0.00     0.026 A 
ATOM     18  C4  <1> d          -8.819 209.442 112.019  0.00  0.00     0.031 A 
ATOM     19  C5  <1> d          -9.894 208.573 111.575  0.00  0.00     0.079 A 
ATOM     20  N2  <1> d         -10.267 208.191 110.294  0.00  0.00    -0.247 NA
ATOM     21  C7  <1> d         -10.813 207.901 112.582  0.00  0.00     0.049 A 
ATOM     22  C6  <1> d         -11.297 207.307 110.277  0.00  0.00     0.157 A 
ATOM     23  S1  <1> d         -11.966 206.968 111.791  0.00  0.00    -0.075 SA
ENDBRANCH   1   9
BRANCH   5  24
ATOM     24  S2  <1> d         -16.265 202.688 119.466  0.00  0.00     0.073 S 
ATOM     25  O2  <1> d         -16.265 201.482 118.694  0.00  0.00    -0.150 OA
ATOM     26  O3  <1> d         -15.798 202.664 120.819  0.00  0.00    -0.150 OA
BRANCH  24  27
ATOM     27  N4  <1> d         -17.839 203.210 119.480  0.00  0.00    -0.200 N 
ATOM     28  H11 <1> d         -18.340 203.141 118.617  0.00  0.00     0.175 HD
BRANCH  27  29
ATOM     29  C20 <1> d         -18.540 203.734 120.567  0.00  0.00     0.138 A 
ATOM     30  N5  <1> d         -18.199 205.073 120.963  0.00  0.00    -0.239 NA
ATOM     31  C19 <1> d         -18.732 205.661 122.161  0.00  0.00     0.113 A 
ATOM     32  C18 <1> d         -19.707 204.926 122.995  0.00  0.00     0.020 A 
ATOM     33  C17 <1> d         -20.137 203.586 122.536  0.00  0.00     0.005 A 
ATOM     34  C21 <1> d         -19.574 202.962 121.334  0.00  0.00     0.045 A 
ENDBRANCH  27  29
ENDBRANCH  24  27
ENDBRANCH   5  24
TORSDOF 4
ENDMDL
MODEL 4
REMARK VINA RESULT:      -9.9      5.637      9.117
REMARK  4 active torsions:
REMARK  status: ('A' for Active; 'I' for Inactive)
REMARK    1  A    between atoms: C10_14  and  N3_15 
REMARK    2  A    between atoms: C14_19  and  S2_22 
REMARK    3  A    between atoms: N4_25  and  S2_22 
REMARK    4  A    between atoms: N4_25  and  C20_30 
ROOT
ATOM      1  N3  <1> d         -12.721 205.416 115.935  0.00  0.00    -0.320 N 
ATOM      2  C11 <1> d         -13.292 205.681 117.119  0.00  0.00     0.031 A 
ATOM      3  C12 <1> d         -13.243 207.026 117.782  0.00  0.00     0.025 A 
ATOM      4  C13 <1> d         -13.976 207.243 119.023  0.00  0.00     0.030 A 
ATOM      5  C14 <1> d         -14.672 206.107 119.673  0.00  0.00     0.109 A 
ATOM      6  C15 <1> d         -14.733 204.780 119.030  0.00  0.00     0.030 A 
ATOM      7  C16 <1> d         -14.025 204.560 117.756  0.00  0.00     0.025 A 
ATOM      8  H6  <1> d         -12.282 204.522 115.847  0.00  0.00     0.152 HD
ENDROOT
BRANCH   1   9
ATOM      9  C10 <1> d         -12.663 206.297 114.737  0.00  0.00     0.085 C 
ATOM     10  C9  <1> d         -13.675 206.278 113.848  0.00  0.00     0.061 A 
ATOM     11  C1  <1> d         -15.081 205.830 114.147  0.00  0.00     0.250 A 
ATOM     12  C8  <1> d         -13.696 206.604 112.435  0.00  0.00     0.025 A 
ATOM     13  O1  <1> d         -15.479 205.381 115.225  0.00  0.00    -0.270 OA
ATOM     14  N1  <1> d         -15.826 205.979 113.032  0.00  0.00    -0.281 N 
ATOM     15  C2  <1> d         -15.059 206.404 111.995  0.00  0.00     0.043 A 
ATOM     16  H1  <1> d         -16.808 205.801 112.978  0.00  0.00     0.155 HD
ATOM     17  C3  <1> d         -15.441 206.611 110.582  0.00  0.00     0.026 A 
ATOM     18  C4  <1> d         -14.443 207.083 109.614  0.00  0.00     0.031 A 
ATOM     19  C5  <1> d         -13.069 207.280 110.039  0.00  0.00     0.079 A 
ATOM     20  N2  <1> d         -11.962 207.711 109.320  0.00  0.00    -0.247 NA
ATOM     21  C7  <1> d         -12.659 207.028 111.481  0.00  0.00     0.049 A 
ATOM     22  C6  <1> d         -10.844 207.833 110.081  0.00  0.00     0.157 A 
ATOM     23  S1  <1> d         -11.016 207.324 111.682  0.00  0.00    -0.075 SA
ENDBRANCH   1   9
BRANCH   5  24
ATOM     24  S2  <1> d         -15.408 206.400 121.242  0.00  0.00     0.073 S 
ATOM     25  O2  <1> d         -14.399 206.766 122.189  0.00  0.00    -0.150 OA
ATOM     26  O3  <1> d         -16.502 207.288 120.992  0.00  0.00    -0.150 OA
BRANCH  24  27
ATOM     27  N4  <1> d         -16.032 204.963 121.787  0.00  0.00    -0.200 N 
ATOM     28  H11 <1> d         -15.381 204.314 122.179  0.00  0.00     0.175 HD
BRANCH  27  29
ATOM     29  C20 <1> d         -17.369 204.564 121.755  0.00  0.00     0.138 A 
ATOM     30  N5  <1> d         -17.866 204.087 120.493  0.00  0.00    -0.239 NA
ATOM     31  C19 <1> d         -19.260 203.802 120.294  0.00  0.00     0.113 A 
ATOM     32  C18 <1> d         -20.224 203.925 121.408  0.00  0.00     0.020 A 
ATOM     33  C17 <1> d         -19.699 204.319 122.735  0.00  0.00     0.005 A 
ATOM     34  C21 <1> d         -18.285 204.646 122.942  0.00  0.00     0.045 A 
ENDBRANCH  27  29
ENDBRANCH  24  27
ENDBRANCH   5  24
TORSDOF 4
ENDMDL
MODEL 5
REMARK VINA RESULT:      -9.7      5.463      9.596
REMARK  4 active torsions:
REMARK  status: ('A' for Active; 'I' for Inactive)
REMARK    1  A    between atoms: C10_14  and  N3_15 
REMARK    2  A    between atoms: C14_19  and  S2_22 
REMARK    3  A    between atoms: N4_25  and  S2_22 
REMARK    4  A    between atoms: N4_25  and  C20_30 
ROOT
ATOM      1  N3  <1> d         -14.314 203.516 118.081  0.00  0.00    -0.320 N 
ATOM      2  C11 <1> d         -13.924 204.549 117.319  0.00  0.00     0.031 A 
ATOM      3  C12 <1> d         -14.750 205.782 117.107  0.00  0.00     0.025 A 
ATOM      4  C13 <1> d         -14.200 206.893 116.340  0.00  0.00     0.030 A 
ATOM      5  C14 <1> d         -12.876 206.752 115.690  0.00  0.00     0.109 A 
ATOM      6  C15 <1> d         -12.049 205.547 115.896  0.00  0.00     0.030 A 
ATOM      7  C16 <1> d         -12.582 204.432 116.699  0.00  0.00     0.025 A 
ATOM      8  H6  <1> d         -14.086 202.604 117.738  0.00  0.00     0.152 HD
ENDROOT
BRANCH   1   9
ATOM      9  C10 <1> d         -15.047 203.568 119.375  0.00  0.00     0.085 C 
ATOM     10  C9  <1> d         -16.393 203.605 119.377  0.00  0.00     0.061 A 
ATOM     11  C1  <1> d         -17.273 203.124 118.255  0.00  0.00     0.250 A 
ATOM     12  C8  <1> d         -17.321 204.130 120.359  0.00  0.00     0.025 A 
ATOM     13  O1  <1> d         -16.881 202.677 117.173  0.00  0.00    -0.270 OA
ATOM     14  N1  <1> d         -18.562 203.285 118.619  0.00  0.00    -0.281 N 
ATOM     15  C2  <1> d         -18.646 203.894 119.830  0.00  0.00     0.043 A 
ATOM     16  H1  <1> d         -19.347 202.995 118.072  0.00  0.00     0.155 HD
ATOM     17  C3  <1> d         -19.850 204.340 120.563  0.00  0.00     0.026 A 
ATOM     18  C4  <1> d         -19.712 204.982 121.876  0.00  0.00     0.031 A 
ATOM     19  C5  <1> d         -18.389 205.234 122.418  0.00  0.00     0.079 A 
ATOM     20  N2  <1> d         -18.008 205.819 123.617  0.00  0.00    -0.247 NA
ATOM     21  C7  <1> d         -17.145 204.817 121.650  0.00  0.00     0.049 A 
ATOM     22  C6  <1> d         -16.664 205.827 123.806  0.00  0.00     0.157 A 
ATOM     23  S1  <1> d         -15.761 205.241 122.504  0.00  0.00    -0.075 SA
ENDBRANCH   1   9
BRANCH   5  24
ATOM     24  S2  <1> d         -12.337 208.068 114.658  0.00  0.00     0.073 S 
ATOM     25  O2  <1> d         -13.212 209.192 114.810  0.00  0.00    -0.150 OA
ATOM     26  O3  <1> d         -10.939 208.217 114.923  0.00  0.00    -0.150 OA
BRANCH  24  27
ATOM     27  N4  <1> d         -12.508 207.581 113.081  0.00  0.00    -0.200 N 
ATOM     28  H11 <1> d         -11.760 207.812 112.459  0.00  0.00     0.175 HD
BRANCH  27  29
ATOM     29  C20 <1> d         -13.583 206.882 112.531  0.00  0.00     0.138 A 
ATOM     30  N5  <1> d         -14.820 207.604 112.405  0.00  0.00    -0.239 NA
ATOM     31  C19 <1> d         -16.035 206.951 112.007  0.00  0.00     0.113 A 
ATOM     32  C18 <1> d         -16.039 205.516 111.645  0.00  0.00     0.020 A 
ATOM     33  C17 <1> d         -14.748 204.793 111.678  0.00  0.00     0.005 A 
ATOM     34  C21 <1> d         -13.508 205.441 112.116  0.00  0.00     0.045 A 
ENDBRANCH  27  29
ENDBRANCH  24  27
ENDBRANCH   5  24
TORSDOF 4
ENDMDL
MODEL 6
REMARK VINA RESULT:      -9.5      6.110      9.496
REMARK  4 active torsions:
REMARK  status: ('A' for Active; 'I' for Inactive)
REMARK    1  A    between atoms: C10_14  and  N3_15 
REMARK    2  A    between atoms: C14_19  and  S2_22 
REMARK    3  A    between atoms: N4_25  and  S2_22 
REMARK    4  A    between atoms: N4_25  and  C20_30 
ROOT
ATOM      1  N3  <1> d         -14.802 204.116 118.595  0.00  0.00    -0.320 N 
ATOM      2  C11 <1> d         -14.055 205.052 117.992  0.00  0.00     0.031 A 
ATOM      3  C12 <1> d         -14.165 206.518 118.287  0.00  0.00     0.025 A 
ATOM      4  C13 <1> d         -13.243 207.451 117.651  0.00  0.00     0.030 A 
ATOM      5  C14 <1> d         -12.279 206.956 116.640  0.00  0.00     0.109 A 
ATOM      6  C15 <1> d         -12.156 205.515 116.344  0.00  0.00     0.030 A 
ATOM      7  C16 <1> d         -13.060 204.560 117.008  0.00  0.00     0.025 A 
ATOM      8  H6  <1> d         -15.118 203.363 118.016  0.00  0.00     0.152 HD
ENDROOT
BRANCH   1   9
ATOM      9  C10 <1> d         -15.217 204.065 120.023  0.00  0.00     0.085 C 
ATOM     10  C9  <1> d         -16.522 203.954 120.334  0.00  0.00     0.061 A 
ATOM     11  C1  <1> d         -17.584 203.397 119.423  0.00  0.00     0.250 A 
ATOM     12  C8  <1> d         -17.247 204.358 121.523  0.00  0.00     0.025 A 
ATOM     13  O1  <1> d         -17.408 203.013 118.264  0.00  0.00    -0.270 OA
ATOM     14  N1  <1> d         -18.763 203.409 120.078  0.00  0.00    -0.281 N 
ATOM     15  C2  <1> d         -18.627 203.985 121.301  0.00  0.00     0.043 A 
ATOM     16  H1  <1> d         -19.619 203.043 119.714  0.00  0.00     0.155 HD
ATOM     17  C3  <1> d         -19.668 204.283 122.307  0.00  0.00     0.026 A 
ATOM     18  C4  <1> d         -19.298 204.916 123.579  0.00  0.00     0.031 A 
ATOM     19  C5  <1> d         -17.919 205.303 123.814  0.00  0.00     0.079 A 
ATOM     20  N2  <1> d         -17.333 205.908 124.918  0.00  0.00    -0.247 NA
ATOM     21  C7  <1> d         -16.850 205.039 122.766  0.00  0.00     0.049 A 
ATOM     22  C6  <1> d         -15.990 206.061 124.795  0.00  0.00     0.157 A 
ATOM     23  S1  <1> d         -15.357 205.599 123.298  0.00  0.00    -0.075 SA
ENDBRANCH   1   9
BRANCH   5  24
ATOM     24  S2  <1> d         -11.301 208.151 115.802  0.00  0.00     0.073 S 
ATOM     25  O2  <1> d         -12.149 209.048 115.076  0.00  0.00    -0.150 OA
ATOM     26  O3  <1> d         -10.399 208.668 116.785  0.00  0.00    -0.150 OA
BRANCH  24  27
ATOM     27  N4  <1> d         -10.403 207.359 114.654  0.00  0.00    -0.200 N 
ATOM     28  H11 <1> d          -9.608 206.849 114.982  0.00  0.00     0.175 HD
BRANCH  27  29
ATOM     29  C20 <1> d         -10.638 207.328 113.279  0.00  0.00     0.138 A 
ATOM     30  N5  <1> d          -9.806 208.173 112.467  0.00  0.00    -0.239 NA
ATOM     31  C19 <1> d         -10.057 208.351 111.064  0.00  0.00     0.113 A 
ATOM     32  C18 <1> d         -11.147 207.612 110.390  0.00  0.00     0.020 A 
ATOM     33  C17 <1> d         -11.942 206.664 111.203  0.00  0.00     0.005 A 
ATOM     34  C21 <1> d         -11.718 206.500 112.643  0.00  0.00     0.045 A 
ENDBRANCH  27  29
ENDBRANCH  24  27
ENDBRANCH   5  24
TORSDOF 4
ENDMDL
MODEL 7
REMARK VINA RESULT:      -9.5      4.003      6.454
REMARK  4 active torsions:
REMARK  status: ('A' for Active; 'I' for Inactive)
REMARK    1  A    between atoms: C10_14  and  N3_15 
REMARK    2  A    between atoms: C14_19  and  S2_22 
REMARK    3  A    between atoms: N4_25  and  S2_22 
REMARK    4  A    between atoms: N4_25  and  C20_30 
ROOT
ATOM      1  N3  <1> d          -8.606 208.842 115.050  0.00  0.00    -0.320 N 
ATOM      2  C11 <1> d          -7.401 208.974 114.476  0.00  0.00     0.031 A 
ATOM      3  C12 <1> d          -6.955 208.176 113.288  0.00  0.00     0.025 A 
ATOM      4  C13 <1> d          -5.663 208.459 112.675  0.00  0.00     0.030 A 
ATOM      5  C14 <1> d          -4.758 209.455 113.296  0.00  0.00     0.109 A 
ATOM      6  C15 <1> d          -5.186 210.253 114.461  0.00  0.00     0.030 A 
ATOM      7  C16 <1> d          -6.506 209.999 115.067  0.00  0.00     0.025 A 
ATOM      8  H6  <1> d          -8.628 208.896 116.048  0.00  0.00     0.152 HD
ENDROOT
BRANCH   1   9
ATOM      9  C10 <1> d          -9.914 208.624 114.374  0.00  0.00     0.085 C 
ATOM     10  C9  <1> d         -10.966 208.178 115.088  0.00  0.00     0.061 A 
ATOM     11  C1  <1> d         -11.122 208.320 116.578  0.00  0.00     0.250 A 
ATOM     12  C8  <1> d         -12.141 207.437 114.674  0.00  0.00     0.025 A 
ATOM     13  O1  <1> d         -10.294 208.820 117.345  0.00  0.00    -0.270 OA
ATOM     14  N1  <1> d         -12.308 207.790 116.939  0.00  0.00    -0.281 N 
ATOM     15  C2  <1> d         -12.933 207.236 115.868  0.00  0.00     0.043 A 
ATOM     16  H1  <1> d         -12.678 207.803 117.868  0.00  0.00     0.155 HD
ATOM     17  C3  <1> d         -14.200 206.476 115.822  0.00  0.00     0.026 A 
ATOM     18  C4  <1> d         -14.700 205.962 114.541  0.00  0.00     0.031 A 
ATOM     19  C5  <1> d         -13.914 206.148 113.336  0.00  0.00     0.079 A 
ATOM     20  N2  <1> d         -14.170 205.758 112.028  0.00  0.00    -0.247 NA
ATOM     21  C7  <1> d         -12.588 206.892 113.382  0.00  0.00     0.049 A 
ATOM     22  C6  <1> d         -13.219 206.168 111.151  0.00  0.00     0.157 A 
ATOM     23  S1  <1> d         -11.894 206.946 111.852  0.00  0.00    -0.075 SA
ENDBRANCH   1   9
BRANCH   5  24
ATOM     24  S2  <1> d          -3.157 209.640 112.596  0.00  0.00     0.073 S 
ATOM     25  O2  <1> d          -2.833 211.031 112.489  0.00  0.00    -0.150 OA
ATOM     26  O3  <1> d          -2.306 208.769 113.348  0.00  0.00    -0.150 OA
BRANCH  24  27
ATOM     27  N4  <1> d          -3.215 209.074 111.038  0.00  0.00    -0.200 N 
ATOM     28  H11 <1> d          -3.978 208.470 110.810  0.00  0.00     0.175 HD
BRANCH  27  29
ATOM     29  C20 <1> d          -2.312 209.352 110.011  0.00  0.00     0.138 A 
ATOM     30  N5  <1> d          -2.620 210.479 109.173  0.00  0.00    -0.239 NA
ATOM     31  C19 <1> d          -1.859 210.767 107.990  0.00  0.00     0.113 A 
ATOM     32  C18 <1> d          -0.682 209.946 107.629  0.00  0.00     0.020 A 
ATOM     33  C17 <1> d          -0.301 208.847 108.544  0.00  0.00     0.005 A 
ATOM     34  C21 <1> d          -1.091 208.522 109.736  0.00  0.00     0.045 A 
ENDBRANCH  27  29
ENDBRANCH  24  27
ENDBRANCH   5  24
TORSDOF 4
ENDMDL
MODEL 8
REMARK VINA RESULT:      -9.3      5.801      9.759
REMARK  4 active torsions:
REMARK  status: ('A' for Active; 'I' for Inactive)
REMARK    1  A    between atoms: C10_14  and  N3_15 
REMARK    2  A    between atoms: C14_19  and  S2_22 
REMARK    3  A    between atoms: N4_25  and  S2_22 
REMARK    4  A    between atoms: N4_25  and  C20_30 
ROOT
ATOM      1  N3  <1> d         -12.894 205.203 115.910  0.00  0.00    -0.320 N 
ATOM      2  C11 <1> d         -13.416 205.085 117.139  0.00  0.00     0.031 A 
ATOM      3  C12 <1> d         -12.857 205.775 118.348  0.00  0.00     0.025 A 
ATOM      4  C13 <1> d         -13.550 205.664 119.625  0.00  0.00     0.030 A 
ATOM      5  C14 <1> d         -14.738 204.785 119.741  0.00  0.00     0.109 A 
ATOM      6  C15 <1> d         -15.303 204.105 118.560  0.00  0.00     0.030 A 
ATOM      7  C16 <1> d         -14.630 204.240 117.256  0.00  0.00     0.025 A 
ATOM      8  H6  <1> d         -12.884 204.371 115.353  0.00  0.00     0.152 HD
ENDROOT
BRANCH   1   9
ATOM      9  C10 <1> d         -12.329 206.425 115.276  0.00  0.00     0.085 C 
ATOM     10  C9  <1> d         -12.326 206.538 113.934  0.00  0.00     0.061 A 
ATOM     11  C1  <1> d         -13.251 205.801 113.002  0.00  0.00     0.250 A 
ATOM     12  C8  <1> d         -11.464 207.301 113.053  0.00  0.00     0.025 A 
ATOM     13  O1  <1> d         -14.096 204.967 113.337  0.00  0.00    -0.270 OA
ATOM     14  N1  <1> d         -12.984 206.187 111.737  0.00  0.00    -0.281 N 
ATOM     15  C2  <1> d         -11.931 207.044 111.708  0.00  0.00     0.043 A 
ATOM     16  H1  <1> d         -13.493 205.884 110.932  0.00  0.00     0.155 HD
ATOM     17  C3  <1> d         -11.250 207.639 110.539  0.00  0.00     0.026 A 
ATOM     18  C4  <1> d         -10.119 208.553 110.736  0.00  0.00     0.031 A 
ATOM     19  C5  <1> d          -9.633 208.815 112.078  0.00  0.00     0.079 A 
ATOM     20  N2  <1> d          -8.594 209.627 112.514  0.00  0.00    -0.247 NA
ATOM     21  C7  <1> d         -10.300 208.173 113.284  0.00  0.00     0.049 A 
ATOM     22  C6  <1> d          -8.476 209.668 113.865  0.00  0.00     0.157 A 
ATOM     23  S1  <1> d          -9.527 208.642 114.700  0.00  0.00    -0.075 SA
ENDBRANCH   1   9
BRANCH   5  24
ATOM     24  S2  <1> d         -15.437 204.577 121.340  0.00  0.00     0.073 S 
ATOM     25  O2  <1> d         -15.660 203.185 121.593  0.00  0.00    -0.150 OA
ATOM     26  O3  <1> d         -14.605 205.334 122.225  0.00  0.00    -0.150 OA
BRANCH  24  27
ATOM     27  N4  <1> d         -16.941 205.276 121.333  0.00  0.00    -0.200 N 
ATOM     28  H11 <1> d         -16.970 206.274 121.262  0.00  0.00     0.175 HD
BRANCH  27  29
ATOM     29  C20 <1> d         -18.171 204.622 121.414  0.00  0.00     0.138 A 
ATOM     30  N5  <1> d         -18.693 204.401 122.735  0.00  0.00    -0.239 NA
ATOM     31  C19 <1> d         -19.864 203.599 122.956  0.00  0.00     0.113 A 
ATOM     32  C18 <1> d         -20.615 203.027 121.817  0.00  0.00     0.020 A 
ATOM     33  C17 <1> d         -20.137 203.336 120.450  0.00  0.00     0.005 A 
ATOM     34  C21 <1> d         -18.923 204.124 120.214  0.00  0.00     0.045 A 
ENDBRANCH  27  29
ENDBRANCH  24  27
ENDBRANCH   5  24
TORSDOF 4
ENDMDL
MODEL 9
REMARK VINA RESULT:      -9.3      6.788     10.724
REMARK  4 active torsions:
REMARK  status: ('A' for Active; 'I' for Inactive)
REMARK    1  A    between atoms: C10_14  and  N3_15 
REMARK    2  A    between atoms: C14_19  and  S2_22 
REMARK    3  A    between atoms: N4_25  and  S2_22 
REMARK    4  A    between atoms: N4_25  and  C20_30 
ROOT
ATOM      1  N3  <1> d         -13.669 205.014 118.497  0.00  0.00    -0.320 N 
ATOM      2  C11 <1> d         -14.327 205.137 119.659  0.00  0.00     0.031 A 
ATOM      3  C12 <1> d         -14.023 206.195 120.678  0.00  0.00     0.025 A 
ATOM      4  C13 <1> d         -14.857 206.309 121.868  0.00  0.00     0.030 A 
ATOM      5  C14 <1> d         -15.928 205.314 122.111  0.00  0.00     0.109 A 
ATOM      6  C15 <1> d         -16.243 204.272 121.115  0.00  0.00     0.030 A 
ATOM      7  C16 <1> d         -15.428 204.170 119.891  0.00  0.00     0.025 A 
ATOM      8  H6  <1> d         -13.481 204.080 118.193  0.00  0.00     0.152 HD
ENDROOT
BRANCH   1   9
ATOM      9  C10 <1> d         -13.186 206.105 117.607  0.00  0.00     0.085 C 
ATOM     10  C9  <1> d         -13.394 206.022 116.279  0.00  0.00     0.061 A 
ATOM     11  C1  <1> d         -14.470 205.198 115.622  0.00  0.00     0.250 A 
ATOM     12  C8  <1> d         -12.667 206.609 115.171  0.00  0.00     0.025 A 
ATOM     13  O1  <1> d         -15.268 204.460 116.205  0.00  0.00    -0.270 OA
ATOM     14  N1  <1> d         -14.399 205.383 114.288  0.00  0.00    -0.281 N 
ATOM     15  C2  <1> d         -13.346 206.179 113.968  0.00  0.00     0.043 A 
ATOM     16  H1  <1> d         -15.036 204.989 113.625  0.00  0.00     0.155 HD
ATOM     17  C3  <1> d         -12.848 206.568 112.632  0.00  0.00     0.026 A 
ATOM     18  C4  <1> d         -11.681 207.450 112.513  0.00  0.00     0.031 A 
ATOM     19  C5  <1> d         -10.983 207.884 113.710  0.00  0.00     0.079 A 
ATOM     20  N2  <1> d          -9.872 208.703 113.853  0.00  0.00    -0.247 NA
ATOM     21  C7  <1> d         -11.464 207.453 115.086  0.00  0.00     0.049 A 
ATOM     22  C6  <1> d          -9.540 208.935 115.148  0.00  0.00     0.157 A 
ATOM     23  S1  <1> d         -10.466 208.090 116.280  0.00  0.00    -0.075 SA
ENDBRANCH   1   9
BRANCH   5  24
ATOM     24  S2  <1> d         -16.796 205.418 123.636  0.00  0.00     0.073 S 
ATOM     25  O2  <1> d         -16.852 204.125 124.250  0.00  0.00    -0.150 OA
ATOM     26  O3  <1> d         -16.205 206.513 124.341  0.00  0.00    -0.150 OA
BRANCH  24  27
ATOM     27  N4  <1> d         -18.370 205.819 123.297  0.00  0.00    -0.200 N 
ATOM     28  H11 <1> d         -18.745 206.608 123.785  0.00  0.00     0.175 HD
BRANCH  27  29
ATOM     29  C20 <1> d         -19.227 205.173 122.405  0.00  0.00     0.138 A 
ATOM     30  N5  <1> d         -19.787 203.924 122.845  0.00  0.00    -0.239 NA
ATOM     31  C19 <1> d         -20.550 203.090 121.959  0.00  0.00     0.113 A 
ATOM     32  C18 <1> d         -20.844 203.524 120.576  0.00  0.00     0.020 A 
ATOM     33  C17 <1> d         -20.354 204.855 120.152  0.00  0.00     0.005 A 
ATOM     34  C21 <1> d         -19.544 205.700 121.035  0.00  0.00     0.045 A 
ENDBRANCH  27  29
ENDBRANCH  24  27
ENDBRANCH   5  24
TORSDOF 4
ENDMDL
MODEL 10
REMARK VINA RESULT:      -9.0      3.988      5.038
REMARK  4 active torsions:
REMARK  status: ('A' for Active; 'I' for Inactive)
REMARK    1  A    between atoms: C10_14  and  N3_15 
REMARK    2  A    between atoms: C14_19  and  S2_22 
REMARK    3  A    between atoms: N4_25  and  S2_22 
REMARK    4  A    between atoms: N4_25  and  C20_30 
ROOT
ATOM      1  N3  <1> d         -11.720 207.997 115.927  0.00  0.00    -0.320 N 
ATOM      2  C11 <1> d         -11.111 207.589 117.050  0.00  0.00     0.031 A 
ATOM      3  C12 <1> d         -11.713 206.608 118.011  0.00  0.00     0.025 A 
ATOM      4  C13 <1> d         -10.934 206.152 119.155  0.00  0.00     0.030 A 
ATOM      5  C14 <1> d          -9.600 206.742 119.417  0.00  0.00     0.109 A 
ATOM      6  C15 <1> d          -8.992 207.703 118.477  0.00  0.00     0.030 A 
ATOM      7  C16 <1> d          -9.758 208.144 117.298  0.00  0.00     0.025 A 
ATOM      8  H6  <1> d         -11.611 208.963 115.691  0.00  0.00     0.152 HD
ENDROOT
BRANCH   1   9
ATOM      9  C10 <1> d         -12.539 207.180 114.990  0.00  0.00     0.085 C 
ATOM     10  C9  <1> d         -12.295 207.241 113.667  0.00  0.00     0.061 A 
ATOM     11  C1  <1> d         -10.991 207.667 113.046  0.00  0.00     0.250 A 
ATOM     12  C8  <1> d         -13.165 206.990 112.535  0.00  0.00     0.025 A 
ATOM     13  O1  <1> d          -9.995 208.057 113.660  0.00  0.00    -0.270 OA
ATOM     14  N1  <1> d         -11.102 207.573 111.705  0.00  0.00    -0.281 N 
ATOM     15  C2  <1> d         -12.362 207.207 111.351  0.00  0.00     0.043 A 
ATOM     16  H1  <1> d         -10.359 207.749 111.059  0.00  0.00     0.155 HD
ATOM     17  C3  <1> d         -12.945 207.072 110.000  0.00  0.00     0.026 A 
ATOM     18  C4  <1> d         -14.344 206.656 109.843  0.00  0.00     0.031 A 
ATOM     19  C5  <1> d         -15.166 206.442 111.020  0.00  0.00     0.079 A 
ATOM     20  N2  <1> d         -16.494 206.055 111.127  0.00  0.00    -0.247 NA
ATOM     21  C7  <1> d         -14.585 206.621 112.413  0.00  0.00     0.049 A 
ATOM     22  C6  <1> d         -16.904 205.898 112.412  0.00  0.00     0.157 A 
ATOM     23  S1  <1> d         -15.759 206.321 113.579  0.00  0.00    -0.075 SA
ENDBRANCH   1   9
BRANCH   5  24
ATOM     24  S2  <1> d          -8.778 206.260 120.894  0.00  0.00     0.073 S 
ATOM     25  O2  <1> d          -9.176 207.116 121.971  0.00  0.00    -0.150 OA
ATOM     26  O3  <1> d          -8.977 204.847 121.001  0.00  0.00    -0.150 OA
BRANCH  24  27
ATOM     27  N4  <1> d          -7.155 206.532 120.685  0.00  0.00    -0.200 N 
ATOM     28  H11 <1> d          -6.726 207.183 121.311  0.00  0.00     0.175 HD
BRANCH  27  29
ATOM     29  C20 <1> d          -6.324 205.949 119.727  0.00  0.00     0.138 A 
ATOM     30  N5  <1> d          -5.703 206.843 118.788  0.00  0.00    -0.239 NA
ATOM     31  C19 <1> d          -4.960 206.352 117.661  0.00  0.00     0.113 A 
ATOM     32  C18 <1> d          -4.750 204.901 117.468  0.00  0.00     0.020 A 
ATOM     33  C17 <1> d          -5.302 203.982 118.489  0.00  0.00     0.005 A 
ATOM     34  C21 <1> d          -6.092 204.469 119.623  0.00  0.00     0.045 A 
ENDBRANCH  27  29
ENDBRANCH  24  27
ENDBRANCH   5  24
TORSDOF 4
ENDMDL
MODEL 11
REMARK VINA RESULT:      -8.9      3.674      4.947
REMARK  4 active torsions:
REMARK  status: ('A' for Active; 'I' for Inactive)
REMARK    1  A    between atoms: C10_14  and  N3_15 
REMARK    2  A    between atoms: C14_19  and  S2_22 
REMARK    3  A    between atoms: N4_25  and  S2_22 
REMARK    4  A    between atoms: N4_25  and  C20_30 
ROOT
ATOM      1  N3  <1> d         -11.487 205.845 116.081  0.00  0.00    -0.320 N 
ATOM      2  C11 <1> d         -10.757 206.422 117.047  0.00  0.00     0.031 A 
ATOM      3  C12 <1> d          -9.766 207.519 116.796  0.00  0.00     0.025 A 
ATOM      4  C13 <1> d          -9.091 208.150 117.922  0.00  0.00     0.030 A 
ATOM      5  C14 <1> d          -9.309 207.631 119.293  0.00  0.00     0.109 A 
ATOM      6  C15 <1> d         -10.286 206.557 119.557  0.00  0.00     0.030 A 
ATOM      7  C16 <1> d         -11.001 205.936 118.427  0.00  0.00     0.025 A 
ATOM      8  H6  <1> d         -11.625 204.858 116.162  0.00  0.00     0.152 HD
ENDROOT
BRANCH   1   9
ATOM      9  C10 <1> d         -12.116 206.502 114.902  0.00  0.00     0.085 C 
ATOM     10  C9  <1> d         -13.419 206.291 114.640  0.00  0.00     0.061 A 
ATOM     11  C1  <1> d         -14.446 205.854 115.651  0.00  0.00     0.250 A 
ATOM     12  C8  <1> d         -14.154 206.361 113.392  0.00  0.00     0.025 A 
ATOM     13  O1  <1> d         -14.222 205.589 116.835  0.00  0.00    -0.270 OA
ATOM     14  N1  <1> d         -15.646 205.778 115.040  0.00  0.00    -0.281 N 
ATOM     15  C2  <1> d         -15.527 206.039 113.712  0.00  0.00     0.043 A 
ATOM     16  H1  <1> d         -16.506 205.559 115.501  0.00  0.00     0.155 HD
ATOM     17  C3  <1> d         -16.562 205.980 112.658  0.00  0.00     0.026 A 
ATOM     18  C4  <1> d         -16.214 206.308 111.270  0.00  0.00     0.031 A 
ATOM     19  C5  <1> d         -14.838 206.625 110.930  0.00  0.00     0.079 A 
ATOM     20  N2  <1> d         -14.271 206.960 109.709  0.00  0.00    -0.247 NA
ATOM     21  C7  <1> d         -13.760 206.646 112.002  0.00  0.00     0.049 A 
ATOM     22  C6  <1> d         -12.949 207.253 109.795  0.00  0.00     0.157 A 
ATOM     23  S1  <1> d         -12.270 207.030 111.325  0.00  0.00    -0.075 SA
ENDBRANCH   1   9
BRANCH   5  24
ATOM     24  S2  <1> d          -8.351 208.337 120.587  0.00  0.00     0.073 S 
ATOM     25  O2  <1> d          -9.140 208.427 121.779  0.00  0.00    -0.150 OA
ATOM     26  O3  <1> d          -7.124 207.601 120.602  0.00  0.00    -0.150 OA
BRANCH  24  27
ATOM     27  N4  <1> d          -8.001 209.902 120.164  0.00  0.00    -0.200 N 
ATOM     28  H11 <1> d          -8.589 210.320 119.472  0.00  0.00     0.175 HD
BRANCH  27  29
ATOM     29  C20 <1> d          -6.973 210.698 120.672  0.00  0.00     0.138 A 
ATOM     30  N5  <1> d          -6.632 210.500 122.054  0.00  0.00    -0.239 NA
ATOM     31  C19 <1> d          -5.708 211.366 122.732  0.00  0.00     0.113 A 
ATOM     32  C18 <1> d          -5.021 212.456 122.006  0.00  0.00     0.020 A 
ATOM     33  C17 <1> d          -5.293 212.599 120.558  0.00  0.00     0.005 A 
ATOM     34  C21 <1> d          -6.261 211.744 119.863  0.00  0.00     0.045 A 
ENDBRANCH  27  29
ENDBRANCH  24  27
ENDBRANCH   5  24
TORSDOF 4
ENDMDL
MODEL 12
REMARK VINA RESULT:      -8.9      3.429      4.362
REMARK  4 active torsions:
REMARK  status: ('A' for Active; 'I' for Inactive)
REMARK    1  A    between atoms: C10_14  and  N3_15 
REMARK    2  A    between atoms: C14_19  and  S2_22 
REMARK    3  A    between atoms: N4_25  and  S2_22 
REMARK    4  A    between atoms: N4_25  and  C20_30 
ROOT
ATOM      1  N3  <1> d         -11.612 208.017 115.732  0.00  0.00    -0.320 N 
ATOM      2  C11 <1> d         -10.980 207.634 116.852  0.00  0.00     0.031 A 
ATOM      3  C12 <1> d         -11.579 206.709 117.868  0.00  0.00     0.025 A 
ATOM      4  C13 <1> d         -10.778 206.274 119.005  0.00  0.00     0.030 A 
ATOM      5  C14 <1> d          -9.420 206.833 119.204  0.00  0.00     0.109 A 
ATOM      6  C15 <1> d          -8.815 207.740 118.209  0.00  0.00     0.030 A 
ATOM      7  C16 <1> d          -9.605 208.158 117.036  0.00  0.00     0.025 A 
ATOM      8  H6  <1> d         -11.483 208.969 115.456  0.00  0.00     0.152 HD
ENDROOT
BRANCH   1   9
ATOM      9  C10 <1> d         -12.483 207.190 114.853  0.00  0.00     0.085 C 
ATOM     10  C9  <1> d         -12.300 207.218 113.519  0.00  0.00     0.061 A 
ATOM     11  C1  <1> d         -11.021 207.612 112.829  0.00  0.00     0.250 A 
ATOM     12  C8  <1> d         -13.224 206.952 112.434  0.00  0.00     0.025 A 
ATOM     13  O1  <1> d          -9.993 208.003 113.388  0.00  0.00    -0.270 OA
ATOM     14  N1  <1> d         -11.195 207.489 111.498  0.00  0.00    -0.281 N 
ATOM     15  C2  <1> d         -12.474 207.131 111.211  0.00  0.00     0.043 A 
ATOM     16  H1  <1> d         -10.481 207.641 110.815  0.00  0.00     0.155 HD
ATOM     17  C3  <1> d         -13.120 206.973 109.891  0.00  0.00     0.026 A 
ATOM     18  C4  <1> d         -14.530 206.572 109.808  0.00  0.00     0.031 A 
ATOM     19  C5  <1> d         -15.299 206.396 111.026  0.00  0.00     0.079 A 
ATOM     20  N2  <1> d         -16.626 206.028 111.204  0.00  0.00    -0.247 NA
ATOM     21  C7  <1> d         -14.653 206.599 112.387  0.00  0.00     0.049 A 
ATOM     22  C6  <1> d         -16.978 205.906 112.509  0.00  0.00     0.157 A 
ATOM     23  S1  <1> d         -15.775 206.341 113.612  0.00  0.00    -0.075 SA
ENDBRANCH   1   9
BRANCH   5  24
ATOM     24  S2  <1> d          -8.567 206.384 120.673  0.00  0.00     0.073 S 
ATOM     25  O2  <1> d          -9.202 206.988 121.805  0.00  0.00    -0.150 OA
ATOM     26  O3  <1> d          -8.424 204.961 120.615  0.00  0.00    -0.150 OA
BRANCH  24  27
ATOM     27  N4  <1> d          -7.050 207.051 120.604  0.00  0.00    -0.200 N 
ATOM     28  H11 <1> d          -6.284 206.443 120.814  0.00  0.00     0.175 HD
BRANCH  27  29
ATOM     29  C20 <1> d          -6.728 208.371 120.284  0.00  0.00     0.138 A 
ATOM     30  N5  <1> d          -5.705 208.559 119.292  0.00  0.00    -0.239 NA
ATOM     31  C19 <1> d          -5.174 209.860 118.996  0.00  0.00     0.113 A 
ATOM     32  C18 <1> d          -5.715 211.067 119.660  0.00  0.00     0.020 A 
ATOM     33  C17 <1> d          -6.837 210.887 120.609  0.00  0.00     0.005 A 
ATOM     34  C21 <1> d          -7.364 209.560 120.944  0.00  0.00     0.045 A 
ENDBRANCH  27  29
ENDBRANCH  24  27
ENDBRANCH   5  24
TORSDOF 4
ENDMDL
MODEL 13
REMARK VINA RESULT:      -8.8      3.500     10.582
REMARK  4 active torsions:
REMARK  status: ('A' for Active; 'I' for Inactive)
REMARK    1  A    between atoms: C10_14  and  N3_15 
REMARK    2  A    between atoms: C14_19  and  S2_22 
REMARK    3  A    between atoms: N4_25  and  S2_22 
REMARK    4  A    between atoms: N4_25  and  C20_30 
ROOT
ATOM      1  N3  <1> d          -9.685 206.668 119.580  0.00  0.00    -0.320 N 
ATOM      2  C11 <1> d         -10.631 206.640 118.630  0.00  0.00     0.031 A 
ATOM      3  C12 <1> d         -10.544 207.414 117.349  0.00  0.00     0.025 A 
ATOM      4  C13 <1> d         -11.576 207.244 116.334  0.00  0.00     0.030 A 
ATOM      5  C14 <1> d         -12.755 206.393 116.622  0.00  0.00     0.109 A 
ATOM      6  C15 <1> d         -12.852 205.620 117.875  0.00  0.00     0.030 A 
ATOM      7  C16 <1> d         -11.794 205.758 118.893  0.00  0.00     0.025 A 
ATOM      8  H6  <1> d         -10.009 206.669 120.526  0.00  0.00     0.152 HD
ENDROOT
BRANCH   1   9
ATOM      9  C10 <1> d          -8.209 206.698 119.391  0.00  0.00     0.085 C 
ATOM     10  C9  <1> d          -7.568 207.881 119.339  0.00  0.00     0.061 A 
ATOM     11  C1  <1> d          -8.084 209.170 119.920  0.00  0.00     0.250 A 
ATOM     12  C8  <1> d          -6.316 208.249 118.708  0.00  0.00     0.025 A 
ATOM     13  O1  <1> d          -9.174 209.323 120.477  0.00  0.00    -0.270 OA
ATOM     14  N1  <1> d          -7.165 210.135 119.709  0.00  0.00    -0.281 N 
ATOM     15  C2  <1> d          -6.123 209.656 118.982  0.00  0.00     0.043 A 
ATOM     16  H1  <1> d          -7.241 211.075 120.043  0.00  0.00     0.155 HD
ATOM     17  C3  <1> d          -4.950 210.381 118.452  0.00  0.00     0.026 A 
ATOM     18  C4  <1> d          -3.928 209.661 117.683  0.00  0.00     0.031 A 
ATOM     19  C5  <1> d          -4.110 208.250 117.393  0.00  0.00     0.079 A 
ATOM     20  N2  <1> d          -3.299 207.366 116.694  0.00  0.00    -0.247 NA
ATOM     21  C7  <1> d          -5.336 207.506 117.898  0.00  0.00     0.049 A 
ATOM     22  C6  <1> d          -3.776 206.096 116.683  0.00  0.00     0.157 A 
ATOM     23  S1  <1> d          -5.290 205.900 117.406  0.00  0.00    -0.075 SA
ENDBRANCH   1   9
BRANCH   5  24
ATOM     24  S2  <1> d         -14.035 206.350 115.418  0.00  0.00     0.073 S 
ATOM     25  O2  <1> d         -14.919 205.257 115.690  0.00  0.00    -0.150 OA
ATOM     26  O3  <1> d         -14.552 207.683 115.359  0.00  0.00    -0.150 OA
BRANCH  24  27
ATOM     27  N4  <1> d         -13.341 206.008 113.951  0.00  0.00    -0.200 N 
ATOM     28  H11 <1> d         -12.411 205.641 113.971  0.00  0.00     0.175 HD
BRANCH  27  29
ATOM     29  C20 <1> d         -13.917 206.177 112.691  0.00  0.00     0.138 A 
ATOM     30  N5  <1> d         -13.036 206.596 111.635  0.00  0.00    -0.239 NA
ATOM     31  C19 <1> d         -13.536 206.960 110.338  0.00  0.00     0.113 A 
ATOM     32  C18 <1> d         -14.977 206.848 110.025  0.00  0.00     0.020 A 
ATOM     33  C17 <1> d         -15.873 206.321 111.079  0.00  0.00     0.005 A 
ATOM     34  C21 <1> d         -15.380 205.980 112.417  0.00  0.00     0.045 A 
ENDBRANCH  27  29
ENDBRANCH  24  27
ENDBRANCH   5  24
TORSDOF 4
ENDMDL
