MODEL 1
REMARK VINA RESULT:      -8.9      0.000      0.000
REMARK  4 active torsions:
REMARK  status: ('A' for Active; 'I' for Inactive)
REMARK    1  A    between atoms: C1_1  and  C9_12 
REMARK    2  A    between atoms: N1_2  and  N2_3 
REMARK       I    between atoms: N2_3  and  C2_4 
REMARK    3  A    between atoms: C2_4  and  C3_6 
REMARK    4  A    between atoms: C10_13  and  C11_14 
ROOT
ATOM      1  C1   11 d         -11.456 207.706 113.137  0.00  0.00     0.051 C 
ATOM      2  N1   11 d         -10.486 207.949 113.995  0.00  0.00    -0.177 NA
ATOM      3  C17  11 d         -12.856 207.947 113.620  0.00  0.00     0.072 C 
ENDROOT
BRANCH   2   4
ATOM      4  N2   11 d          -9.158 207.828 113.582  0.00  0.00    -0.246 N 
ATOM      5  C2   11 d          -8.330 208.984 113.593  0.00  0.00     0.242 C 
ATOM      6  O1   11 d          -8.801 210.115 113.978  0.00  0.00    -0.271 OA
ATOM      7  H1   11 d          -8.794 206.870 113.261  0.00  0.00     0.192 HD
BRANCH   5   8
ATOM      8  C3   11 d          -6.893 208.883 113.155  0.00  0.00     0.089 A 
ATOM      9  C4   11 d          -6.050 208.270 114.270  0.00  0.00    -0.027 A 
ATOM     10  C5   11 d          -5.790 209.710 113.794  0.00  0.00     0.025 A 
ATOM     11  C6   11 d          -4.759 207.482 114.225  0.00  0.00     0.010 A 
ATOM     12  C8   11 d          -6.123 208.284 115.787  0.00  0.00     0.010 A 
ATOM     13  C7   11 d          -4.766 207.559 115.761  0.00  0.00     0.002 A 
ENDBRANCH   5   8
ENDBRANCH   2   4
BRANCH   1  14
ATOM     14  C9   11 d         -11.275 207.400 111.684  0.00  0.00     0.029 C 
ATOM     15  C10  11 d         -12.148 206.864 110.803  0.00  0.00     0.013 C 
BRANCH  15  16
ATOM     16  C11  11 d         -13.588 206.556 111.008  0.00  0.00    -0.036 A 
ATOM     17  C12  11 d         -14.625 207.414 110.583  0.00  0.00     0.011 A 
ATOM     18  C13  11 d         -15.968 207.057 110.782  0.00  0.00     0.001 A 
ATOM     19  C14  11 d         -16.289 205.837 111.394  0.00  0.00     0.000 A 
ATOM     20  C15  11 d         -15.268 204.968 111.799  0.00  0.00     0.001 A 
ATOM     21  C16  11 d         -13.926 205.322 111.602  0.00  0.00     0.011 A 
ENDBRANCH  15  16
ENDBRANCH   1  14
TORSDOF 4
ENDMDL
MODEL 2
REMARK VINA RESULT:      -8.7      3.773      7.421
REMARK  4 active torsions:
REMARK  status: ('A' for Active; 'I' for Inactive)
REMARK    1  A    between atoms: C1_1  and  C9_12 
REMARK    2  A    between atoms: N1_2  and  N2_3 
REMARK       I    between atoms: N2_3  and  C2_4 
REMARK    3  A    between atoms: C2_4  and  C3_6 
REMARK    4  A    between atoms: C10_13  and  C11_14 
ROOT
ATOM      1  C1   11 d         -13.572 206.747 117.136  0.00  0.00     0.051 C 
ATOM      2  N1   11 d         -14.708 206.893 116.486  0.00  0.00    -0.177 NA
ATOM      3  C17  11 d         -13.357 207.643 118.321  0.00  0.00     0.072 C 
ENDROOT
BRANCH   2   4
ATOM      4  N2   11 d         -15.009 206.032 115.429  0.00  0.00    -0.246 N 
ATOM      5  C2   11 d         -15.465 206.587 114.202  0.00  0.00     0.242 C 
ATOM      6  O1   11 d         -15.595 207.858 114.074  0.00  0.00    -0.271 OA
ATOM      7  H1   11 d         -14.895 204.972 115.567  0.00  0.00     0.192 HD
BRANCH   5   8
ATOM      8  C3   11 d         -15.795 205.682 113.044  0.00  0.00     0.089 A 
ATOM      9  C4   11 d         -15.200 206.246 111.756  0.00  0.00    -0.027 A 
ATOM     10  C5   11 d         -16.724 206.109 111.920  0.00  0.00     0.025 A 
ATOM     11  C6   11 d         -14.766 205.564 110.477  0.00  0.00     0.010 A 
ATOM     12  C8   11 d         -14.907 207.646 111.245  0.00  0.00     0.010 A 
ATOM     13  C7   11 d         -14.546 206.976 109.908  0.00  0.00     0.002 A 
ENDBRANCH   5   8
ENDBRANCH   2   4
BRANCH   1  14
ATOM     14  C9   11 d         -12.579 205.651 116.917  0.00  0.00     0.029 C 
ATOM     15  C10  11 d         -11.713 205.466 115.896  0.00  0.00     0.013 C 
BRANCH  15  16
ATOM     16  C11  11 d         -11.414 206.387 114.768  0.00  0.00    -0.036 A 
ATOM     17  C12  11 d         -10.678 207.581 114.926  0.00  0.00     0.011 A 
ATOM     18  C13  11 d         -10.405 208.398 113.818  0.00  0.00     0.001 A 
ATOM     19  C14  11 d         -10.849 208.026 112.541  0.00  0.00     0.000 A 
ATOM     20  C15  11 d         -11.560 206.830 112.369  0.00  0.00     0.001 A 
ATOM     21  C16  11 d         -11.836 206.013 113.475  0.00  0.00     0.011 A 
ENDBRANCH  15  16
ENDBRANCH   1  14
TORSDOF 4
ENDMDL
MODEL 3
REMARK VINA RESULT:      -8.6      3.713      5.806
REMARK  4 active torsions:
REMARK  status: ('A' for Active; 'I' for Inactive)
REMARK    1  A    between atoms: C1_1  and  C9_12 
REMARK    2  A    between atoms: N1_2  and  N2_3 
REMARK       I    between atoms: N2_3  and  C2_4 
REMARK    3  A    between atoms: C2_4  and  C3_6 
REMARK    4  A    between atoms: C10_13  and  C11_14 
ROOT
ATOM      1  C1   11 d         -15.218 206.771 111.883  0.00  0.00     0.051 C 
ATOM      2  N1   11 d         -15.467 207.320 113.054  0.00  0.00    -0.177 NA
ATOM      3  C17  11 d         -15.657 207.544 110.673  0.00  0.00     0.072 C 
ENDROOT
BRANCH   2   4
ATOM      4  N2   11 d         -15.007 206.695 114.215  0.00  0.00    -0.246 N 
ATOM      5  C2   11 d         -14.631 207.502 115.324  0.00  0.00     0.242 C 
ATOM      6  O1   11 d         -14.714 208.781 115.252  0.00  0.00    -0.271 OA
ATOM      7  H1   11 d         -14.944 205.623 114.244  0.00  0.00     0.192 HD
BRANCH   5   8
ATOM      8  C3   11 d         -14.134 206.855 116.590  0.00  0.00     0.089 A 
ATOM      9  C4   11 d         -12.777 207.440 116.975  0.00  0.00    -0.027 A 
ATOM     10  C5   11 d         -12.914 205.951 116.613  0.00  0.00     0.025 A 
ATOM     11  C6   11 d         -12.096 207.573 118.320  0.00  0.00     0.010 A 
ATOM     12  C8   11 d         -11.604 208.007 116.196  0.00  0.00     0.010 A 
ATOM     13  C7   11 d         -10.864 208.067 117.543  0.00  0.00     0.002 A 
ENDBRANCH   5   8
ENDBRANCH   2   4
BRANCH   1  14
ATOM     14  C9   11 d         -14.379 205.556 111.651  0.00  0.00     0.029 C 
ATOM     15  C10  11 d         -13.047 205.456 111.445  0.00  0.00     0.013 C 
BRANCH  15  16
ATOM     16  C11  11 d         -12.022 206.530 111.531  0.00  0.00    -0.036 A 
ATOM     17  C12  11 d         -11.450 206.950 112.751  0.00  0.00     0.011 A 
ATOM     18  C13  11 d         -10.466 207.951 112.765  0.00  0.00     0.001 A 
ATOM     19  C14  11 d         -10.035 208.533 111.565  0.00  0.00     0.000 A 
ATOM     20  C15  11 d         -10.580 208.107 110.346  0.00  0.00     0.001 A 
ATOM     21  C16  11 d         -11.563 207.108 110.329  0.00  0.00     0.011 A 
ENDBRANCH  15  16
ENDBRANCH   1  14
TORSDOF 4
ENDMDL
MODEL 4
REMARK VINA RESULT:      -8.4      3.233      7.039
REMARK  4 active torsions:
REMARK  status: ('A' for Active; 'I' for Inactive)
REMARK    1  A    between atoms: C1_1  and  C9_12 
REMARK    2  A    between atoms: N1_2  and  N2_3 
REMARK       I    between atoms: N2_3  and  C2_4 
REMARK    3  A    between atoms: C2_4  and  C3_6 
REMARK    4  A    between atoms: C10_13  and  C11_14 
ROOT
ATOM      1  C1   11 d         -11.604 208.061 114.883  0.00  0.00     0.051 C 
ATOM      2  N1   11 d         -11.204 207.077 114.104  0.00  0.00    -0.177 NA
ATOM      3  C17  11 d         -10.530 208.849 115.575  0.00  0.00     0.072 C 
ENDROOT
BRANCH   2   4
ATOM      4  N2   11 d         -12.147 206.361 113.364  0.00  0.00    -0.246 N 
ATOM      5  C2   11 d         -12.260 206.616 111.970  0.00  0.00     0.242 C 
ATOM      6  O1   11 d         -11.506 207.489 111.407  0.00  0.00    -0.271 OA
ATOM      7  H1   11 d         -12.766 205.639 113.863  0.00  0.00     0.192 HD
BRANCH   5   8
ATOM      8  C3   11 d         -13.267 205.856 111.147  0.00  0.00     0.089 A 
ATOM      9  C4   11 d         -14.663 206.430 111.372  0.00  0.00    -0.027 A 
ATOM     10  C5   11 d         -14.337 204.983 111.778  0.00  0.00     0.025 A 
ATOM     11  C6   11 d         -15.890 206.443 110.487  0.00  0.00     0.010 A 
ATOM     12  C8   11 d         -15.360 207.100 112.544  0.00  0.00     0.010 A 
ATOM     13  C7   11 d         -16.639 207.041 111.690  0.00  0.00     0.002 A 
ENDBRANCH   5   8
ENDBRANCH   2   4
BRANCH   1  14
ATOM     14  C9   11 d         -13.005 208.574 114.986  0.00  0.00     0.029 C 
ATOM     15  C10  11 d         -14.079 208.029 115.599  0.00  0.00     0.013 C 
BRANCH  15  16
ATOM     16  C11  11 d         -14.127 206.821 116.464  0.00  0.00    -0.036 A 
ATOM     17  C12  11 d         -13.844 206.856 117.847  0.00  0.00     0.011 A 
ATOM     18  C13  11 d         -13.932 205.687 118.618  0.00  0.00     0.001 A 
ATOM     19  C14  11 d         -14.314 204.477 118.023  0.00  0.00     0.000 A 
ATOM     20  C15  11 d         -14.620 204.436 116.656  0.00  0.00     0.001 A 
ATOM     21  C16  11 d         -14.533 205.602 115.882  0.00  0.00     0.011 A 
ENDBRANCH  15  16
ENDBRANCH   1  14
TORSDOF 4
ENDMDL
MODEL 5
REMARK VINA RESULT:      -8.4      2.367      3.258
REMARK  4 active torsions:
REMARK  status: ('A' for Active; 'I' for Inactive)
REMARK    1  A    between atoms: C1_1  and  C9_12 
REMARK    2  A    between atoms: N1_2  and  N2_3 
REMARK       I    between atoms: N2_3  and  C2_4 
REMARK    3  A    between atoms: C2_4  and  C3_6 
REMARK    4  A    between atoms: C10_13  and  C11_14 
ROOT
ATOM      1  C1   11 d         -13.321 206.707 115.360  0.00  0.00     0.051 C 
ATOM      2  N1   11 d         -13.180 207.957 115.748  0.00  0.00    -0.177 NA
ATOM      3  C17  11 d         -14.500 205.961 115.912  0.00  0.00     0.072 C 
ENDROOT
BRANCH   2   4
ATOM      4  N2   11 d         -12.154 208.733 115.204  0.00  0.00    -0.246 N 
ATOM      5  C2   11 d         -10.846 208.621 115.751  0.00  0.00     0.242 C 
ATOM      6  O1   11 d         -10.619 207.818 116.727  0.00  0.00    -0.271 OA
ATOM      7  H1   11 d         -12.376 209.398 114.390  0.00  0.00     0.192 HD
BRANCH   5   8
ATOM      8  C3   11 d          -9.721 209.443 115.182  0.00  0.00     0.089 A 
ATOM      9  C4   11 d          -9.484 209.064 113.722  0.00  0.00    -0.027 A 
ATOM     10  C5   11 d          -8.391 208.830 114.779  0.00  0.00     0.025 A 
ATOM     11  C6   11 d          -8.910 209.857 112.567  0.00  0.00     0.010 A 
ATOM     12  C8   11 d          -9.642 207.786 112.917  0.00  0.00     0.010 A 
ATOM     13  C7   11 d          -8.978 208.550 111.758  0.00  0.00     0.002 A 
ENDBRANCH   5   8
ENDBRANCH   2   4
BRANCH   1  14
ATOM     14  C9   11 d         -12.530 206.035 114.283  0.00  0.00     0.029 C 
ATOM     15  C10  11 d         -12.883 205.741 113.012  0.00  0.00     0.013 C 
BRANCH  15  16
ATOM     16  C11  11 d         -14.121 206.134 112.288  0.00  0.00    -0.036 A 
ATOM     17  C12  11 d         -14.165 207.203 111.367  0.00  0.00     0.011 A 
ATOM     18  C13  11 d         -15.358 207.510 110.695  0.00  0.00     0.001 A 
ATOM     19  C14  11 d         -16.513 206.749 110.924  0.00  0.00     0.000 A 
ATOM     20  C15  11 d         -16.473 205.671 111.819  0.00  0.00     0.001 A 
ATOM     21  C16  11 d         -15.283 205.362 112.492  0.00  0.00     0.011 A 
ENDBRANCH  15  16
ENDBRANCH   1  14
TORSDOF 4
ENDMDL
MODEL 6
REMARK VINA RESULT:      -8.2      1.903      2.996
REMARK  4 active torsions:
REMARK  status: ('A' for Active; 'I' for Inactive)
REMARK    1  A    between atoms: C1_1  and  C9_12 
REMARK    2  A    between atoms: N1_2  and  N2_3 
REMARK       I    between atoms: N2_3  and  C2_4 
REMARK    3  A    between atoms: C2_4  and  C3_6 
REMARK    4  A    between atoms: C10_13  and  C11_14 
ROOT
ATOM      1  C1   11 d         -12.649 207.133 115.672  0.00  0.00     0.051 C 
ATOM      2  N1   11 d         -11.377 206.907 115.415  0.00  0.00    -0.177 NA
ATOM      3  C17  11 d         -13.314 206.199 116.642  0.00  0.00     0.072 C 
ENDROOT
BRANCH   2   4
ATOM      4  N2   11 d         -10.677 207.789 114.590  0.00  0.00    -0.246 N 
ATOM      5  C2   11 d         -10.512 207.459 113.217  0.00  0.00     0.242 C 
ATOM      6  O1   11 d         -11.001 206.367 112.750  0.00  0.00    -0.271 OA
ATOM      7  H1   11 d         -10.276 208.693 115.011  0.00  0.00     0.192 HD
BRANCH   5   8
ATOM      8  C3   11 d          -9.763 208.393 112.304  0.00  0.00     0.089 A 
ATOM      9  C4   11 d          -8.280 208.401 112.670  0.00  0.00    -0.027 A 
ATOM     10  C5   11 d          -9.127 209.679 112.805  0.00  0.00     0.025 A 
ATOM     11  C6   11 d          -7.051 208.695 111.838  0.00  0.00     0.010 A 
ATOM     12  C8   11 d          -7.504 208.215 113.962  0.00  0.00     0.010 A 
ATOM     13  C7   11 d          -6.254 208.598 113.151  0.00  0.00     0.002 A 
ENDBRANCH   5   8
ENDBRANCH   2   4
BRANCH   1  14
ATOM     14  C9   11 d         -13.424 208.335 115.238  0.00  0.00     0.029 C 
ATOM     15  C10  11 d         -14.241 208.495 114.173  0.00  0.00     0.013 C 
BRANCH  15  16
ATOM     16  C11  11 d         -14.703 207.463 113.208  0.00  0.00    -0.036 A 
ATOM     17  C12  11 d         -15.778 206.588 113.475  0.00  0.00     0.011 A 
ATOM     18  C13  11 d         -16.186 205.651 112.514  0.00  0.00     0.001 A 
ATOM     19  C14  11 d         -15.536 205.585 111.273  0.00  0.00     0.000 A 
ATOM     20  C15  11 d         -14.482 206.464 110.989  0.00  0.00     0.001 A 
ATOM     21  C16  11 d         -14.072 207.401 111.948  0.00  0.00     0.011 A 
ENDBRANCH  15  16
ENDBRANCH   1  14
TORSDOF 4
ENDMDL
MODEL 7
REMARK VINA RESULT:      -8.0      1.303      2.212
REMARK  4 active torsions:
REMARK  status: ('A' for Active; 'I' for Inactive)
REMARK    1  A    between atoms: C1_1  and  C9_12 
REMARK    2  A    between atoms: N1_2  and  N2_3 
REMARK       I    between atoms: N2_3  and  C2_4 
REMARK    3  A    between atoms: C2_4  and  C3_6 
REMARK    4  A    between atoms: C10_13  and  C11_14 
ROOT
ATOM      1  C1   11 d         -11.079 207.145 112.260  0.00  0.00     0.051 C 
ATOM      2  N1   11 d          -9.954 207.828 112.193  0.00  0.00    -0.177 NA
ATOM      3  C17  11 d         -11.768 206.857 110.958  0.00  0.00     0.072 C 
ENDROOT
BRANCH   2   4
ATOM      4  N2   11 d          -9.218 208.054 113.358  0.00  0.00    -0.246 N 
ATOM      5  C2   11 d          -8.753 209.370 113.629  0.00  0.00     0.242 C 
ATOM      6  O1   11 d          -9.009 210.328 112.815  0.00  0.00    -0.271 OA
ATOM      7  H1   11 d          -9.016 207.231 114.018  0.00  0.00     0.192 HD
BRANCH   5   8
ATOM      8  C3   11 d          -7.959 209.643 114.879  0.00  0.00     0.089 A 
ATOM      9  C4   11 d          -6.479 209.791 114.534  0.00  0.00    -0.027 A 
ATOM     10  C5   11 d          -6.961 208.645 115.440  0.00  0.00     0.025 A 
ATOM     11  C6   11 d          -5.366 210.549 115.226  0.00  0.00     0.010 A 
ATOM     12  C8   11 d          -5.572 209.199 113.470  0.00  0.00     0.010 A 
ATOM     13  C7   11 d          -4.415 209.891 114.212  0.00  0.00     0.002 A 
ENDBRANCH   5   8
ENDBRANCH   2   4
BRANCH   1  14
ATOM     14  C9   11 d         -11.619 206.478 113.484  0.00  0.00     0.029 C 
ATOM     15  C10  11 d         -12.887 206.110 113.775  0.00  0.00     0.013 C 
BRANCH  15  16
ATOM     16  C11  11 d         -14.080 206.148 112.889  0.00  0.00    -0.036 A 
ATOM     17  C12  11 d         -14.577 205.007 112.223  0.00  0.00     0.011 A 
ATOM     18  C13  11 d         -15.725 205.098 111.420  0.00  0.00     0.001 A 
ATOM     19  C14  11 d         -16.393 206.323 111.283  0.00  0.00     0.000 A 
ATOM     20  C15  11 d         -15.921 207.457 111.958  0.00  0.00     0.001 A 
ATOM     21  C16  11 d         -14.775 207.368 112.761  0.00  0.00     0.011 A 
ENDBRANCH  15  16
ENDBRANCH   1  14
TORSDOF 4
ENDMDL
MODEL 8
REMARK VINA RESULT:      -8.0      5.150      7.382
REMARK  4 active torsions:
REMARK  status: ('A' for Active; 'I' for Inactive)
REMARK    1  A    between atoms: C1_1  and  C9_12 
REMARK    2  A    between atoms: N1_2  and  N2_3 
REMARK       I    between atoms: N2_3  and  C2_4 
REMARK    3  A    between atoms: C2_4  and  C3_6 
REMARK    4  A    between atoms: C10_13  and  C11_14 
ROOT
ATOM      1  C1   11 d         -13.882 207.652 115.290  0.00  0.00     0.051 C 
ATOM      2  N1   11 d         -14.458 207.731 116.472  0.00  0.00    -0.177 NA
ATOM      3  C17  11 d         -13.759 208.932 114.516  0.00  0.00     0.072 C 
ENDROOT
BRANCH   2   4
ATOM      4  N2   11 d         -14.525 206.595 117.280  0.00  0.00    -0.246 N 
ATOM      5  C2   11 d         -13.856 206.606 118.535  0.00  0.00     0.242 C 
ATOM      6  O1   11 d         -13.204 207.645 118.912  0.00  0.00    -0.271 OA
ATOM      7  H1   11 d         -15.075 205.738 116.935  0.00  0.00     0.192 HD
BRANCH   5   8
ATOM      8  C3   11 d         -13.914 205.395 119.427  0.00  0.00     0.089 A 
ATOM      9  C4   11 d         -15.175 205.440 120.287  0.00  0.00    -0.027 A 
ATOM     10  C5   11 d         -13.782 205.493 120.938  0.00  0.00     0.025 A 
ATOM     11  C6   11 d         -15.989 204.334 120.922  0.00  0.00     0.010 A 
ATOM     12  C8   11 d         -16.015 206.557 120.883  0.00  0.00     0.010 A 
ATOM     13  C7   11 d         -16.798 205.448 121.608  0.00  0.00     0.002 A 
ENDBRANCH   5   8
ENDBRANCH   2   4
BRANCH   1  14
ATOM     14  C9   11 d         -13.177 206.451 114.744  0.00  0.00     0.029 C 
ATOM     15  C10  11 d         -13.394 205.775 113.594  0.00  0.00     0.013 C 
BRANCH  15  16
ATOM     16  C11  11 d         -14.313 206.129 112.481  0.00  0.00    -0.036 A 
ATOM     17  C12  11 d         -15.700 205.869 112.518  0.00  0.00     0.011 A 
ATOM     18  C13  11 d         -16.522 206.250 111.446  0.00  0.00     0.001 A 
ATOM     19  C14  11 d         -15.972 206.904 110.334  0.00  0.00     0.000 A 
ATOM     20  C15  11 d         -14.600 207.188 110.297  0.00  0.00     0.001 A 
ATOM     21  C16  11 d         -13.777 206.808 111.367  0.00  0.00     0.011 A 
ENDBRANCH  15  16
ENDBRANCH   1  14
TORSDOF 4
ENDMDL
MODEL 9
REMARK VINA RESULT:      -8.0      1.822      8.462
REMARK  4 active torsions:
REMARK  status: ('A' for Active; 'I' for Inactive)
REMARK    1  A    between atoms: C1_1  and  C9_12 
REMARK    2  A    between atoms: N1_2  and  N2_3 
REMARK       I    between atoms: N2_3  and  C2_4 
REMARK    3  A    between atoms: C2_4  and  C3_6 
REMARK    4  A    between atoms: C10_13  and  C11_14 
ROOT
ATOM      1  C1   11 d         -10.038 208.614 114.185  0.00  0.00     0.051 C 
ATOM      2  N1   11 d         -11.088 207.824 114.094  0.00  0.00    -0.177 NA
ATOM      3  C17  11 d          -9.435 208.775 115.550  0.00  0.00     0.072 C 
ENDROOT
BRANCH   2   4
ATOM      4  N2   11 d         -11.643 207.562 112.840  0.00  0.00    -0.246 N 
ATOM      5  C2   11 d         -12.585 206.504 112.716  0.00  0.00     0.242 C 
ATOM      6  O1   11 d         -12.915 205.807 113.742  0.00  0.00    -0.271 OA
ATOM      7  H1   11 d         -11.343 208.160 111.999  0.00  0.00     0.192 HD
BRANCH   5   8
ATOM      8  C3   11 d         -13.201 206.201 111.375  0.00  0.00     0.089 A 
ATOM      9  C4   11 d         -14.695 206.514 111.406  0.00  0.00    -0.027 A 
ATOM     10  C5   11 d         -14.202 205.075 111.180  0.00  0.00     0.025 A 
ATOM     11  C6   11 d         -15.654 206.900 110.300  0.00  0.00     0.010 A 
ATOM     12  C8   11 d         -15.766 206.480 112.481  0.00  0.00     0.010 A 
ATOM     13  C7   11 d         -16.768 206.785 111.355  0.00  0.00     0.002 A 
ENDBRANCH   5   8
ENDBRANCH   2   4
BRANCH   1  14
ATOM     14  C9   11 d          -9.289 209.201 113.032  0.00  0.00     0.029 C 
ATOM     15  C10  11 d          -7.980 209.523 112.930  0.00  0.00     0.013 C 
BRANCH  15  16
ATOM     16  C11  11 d          -6.889 209.250 113.902  0.00  0.00    -0.036 A 
ATOM     17  C12  11 d          -6.166 208.038 113.923  0.00  0.00     0.011 A 
ATOM     18  C13  11 d          -5.127 207.847 114.848  0.00  0.00     0.001 A 
ATOM     19  C14  11 d          -4.792 208.866 115.751  0.00  0.00     0.000 A 
ATOM     20  C15  11 d          -5.488 210.082 115.723  0.00  0.00     0.001 A 
ATOM     21  C16  11 d          -6.526 210.275 114.800  0.00  0.00     0.011 A 
ENDBRANCH  15  16
ENDBRANCH   1  14
TORSDOF 4
ENDMDL
MODEL 10
REMARK VINA RESULT:      -7.9      3.151      5.312
REMARK  4 active torsions:
REMARK  status: ('A' for Active; 'I' for Inactive)
REMARK    1  A    between atoms: C1_1  and  C9_12 
REMARK    2  A    between atoms: N1_2  and  N2_3 
REMARK       I    between atoms: N2_3  and  C2_4 
REMARK    3  A    between atoms: C2_4  and  C3_6 
REMARK    4  A    between atoms: C10_13  and  C11_14 
ROOT
ATOM      1  C1   11 d         -11.050 207.800 113.720  0.00  0.00     0.051 C 
ATOM      2  N1   11 d         -11.172 208.739 114.636  0.00  0.00    -0.177 NA
ATOM      3  C17  11 d         -10.146 208.105 112.562  0.00  0.00     0.072 C 
ENDROOT
BRANCH   2   4
ATOM      4  N2   11 d         -11.928 208.486 115.782  0.00  0.00    -0.246 N 
ATOM      5  C2   11 d         -11.277 207.954 116.929  0.00  0.00     0.242 C 
ATOM      6  O1   11 d         -10.017 207.713 116.905  0.00  0.00    -0.271 OA
ATOM      7  H1   11 d         -12.982 208.694 115.770  0.00  0.00     0.192 HD
BRANCH   5   8
ATOM      8  C3   11 d         -12.068 207.673 118.179  0.00  0.00     0.089 A 
ATOM      9  C4   11 d         -12.902 206.407 117.995  0.00  0.00    -0.027 A 
ATOM     10  C5   11 d         -13.584 207.768 118.218  0.00  0.00     0.025 A 
ATOM     11  C6   11 d         -13.428 205.406 119.001  0.00  0.00     0.010 A 
ATOM     12  C8   11 d         -13.568 205.737 116.806  0.00  0.00     0.010 A 
ATOM     13  C7   11 d         -14.184 204.763 117.825  0.00  0.00     0.002 A 
ENDBRANCH   5   8
ENDBRANCH   2   4
BRANCH   1  14
ATOM     14  C9   11 d         -11.575 206.405 113.830  0.00  0.00     0.029 C 
ATOM     15  C10  11 d         -12.631 205.830 113.211  0.00  0.00     0.013 C 
BRANCH  15  16
ATOM     16  C11  11 d         -13.484 206.399 112.135  0.00  0.00    -0.036 A 
ATOM     17  C12  11 d         -13.017 206.625 110.823  0.00  0.00     0.011 A 
ATOM     18  C13  11 d         -13.878 207.140 109.842  0.00  0.00     0.001 A 
ATOM     19  C14  11 d         -15.215 207.423 110.156  0.00  0.00     0.000 A 
ATOM     20  C15  11 d         -15.696 207.181 111.450  0.00  0.00     0.001 A 
ATOM     21  C16  11 d         -14.837 206.667 112.432  0.00  0.00     0.011 A 
ENDBRANCH  15  16
ENDBRANCH   1  14
TORSDOF 4
ENDMDL
