MODEL 1
REMARK VINA RESULT:     -10.3      0.000      0.000
REMARK  5 active torsions:
REMARK  status: ('A' for Active; 'I' for Inactive)
REMARK    1  A    between atoms: C16_18  and  C17_19 
REMARK    2  A    between atoms: C17_19  and  O4_21 
REMARK    3  A    between atoms: N1_25  and  C22_28 
REMARK    4  A    between atoms: C22_28  and  C23_29 
REMARK    5  A    between atoms: C23_29  and  C24_30 
ROOT
ATOM      1  C1   11 d           1.544  45.559  54.677  0.00  0.00     0.156 A 
ATOM      2  C2   11 d           1.458  45.370  53.313  0.00  0.00     0.060 A 
ATOM      3  C3   11 d           0.261  44.873  52.778  0.00  0.00     0.196 A 
ATOM      4  C4   11 d          -0.796  44.546  53.663  0.00  0.00     0.049 A 
ATOM      5  C5   11 d          -0.587  44.748  55.055  0.00  0.00     0.091 A 
ATOM      6  O1   11 d           0.556  45.249  55.498  0.00  0.00    -0.303 OA
ATOM      7  C6   11 d          -1.592  44.406  55.968  0.00  0.00     0.045 A 
ATOM      8  C7   11 d          -2.810  43.848  55.530  0.00  0.00    -0.053 A 
ATOM      9  C8   11 d          -3.052  43.711  54.136  0.00  0.00    -0.055 A 
ATOM     10  C9   11 d          -2.029  44.028  53.219  0.00  0.00     0.025 A 
ATOM     11  C10  11 d          -4.313  43.068  53.608  0.00  0.00     0.049 C 
ATOM     12  C11  11 d          -3.880  43.573  56.559  0.00  0.00     0.049 C 
ATOM     13  O2   11 d           0.141  44.724  51.535  0.00  0.00    -0.287 OA
ATOM     14  C12  11 d           2.746  45.750  52.611  0.00  0.00     0.161 A 
ATOM     15  C13  11 d           3.463  44.610  51.883  0.00  0.00    -0.030 A 
ATOM     16  C14  11 d           4.635  44.895  51.150  0.00  0.00     0.011 A 
ATOM     17  C15  11 d           5.357  43.877  50.507  0.00  0.00     0.018 A 
ATOM     18  C16  11 d           4.927  42.539  50.577  0.00  0.00     0.039 A 
ATOM     19  C19  11 d           3.735  42.250  51.268  0.00  0.00     0.018 A 
ATOM     20  C20  11 d           3.010  43.269  51.903  0.00  0.00     0.011 A 
ATOM     21  N1   11 d           3.569  46.305  53.756  0.00  0.00    -0.333 N 
ATOM     22  C21  11 d           2.858  46.092  54.971  0.00  0.00     0.279 A 
ATOM     23  O5   11 d           3.303  46.321  56.150  0.00  0.00    -0.265 OA
ENDROOT
BRANCH  21  24
ATOM     24  C22  11 d           4.907  46.968  53.582  0.00  0.00     0.132 C 
BRANCH  24  25
ATOM     25  C23  11 d           6.102  46.293  54.272  0.00  0.00     0.058 C 
BRANCH  25  26
ATOM     26  C24  11 d           7.471  46.507  53.649  0.00  0.00    -0.057 A 
ATOM     27  C25  11 d           7.635  46.159  52.290  0.00  0.00     0.007 A 
ATOM     28  C26  11 d           8.852  46.383  51.631  0.00  0.00     0.001 A 
ATOM     29  C27  11 d           9.921  46.978  52.314  0.00  0.00     0.000 A 
ATOM     30  C28  11 d           9.768  47.355  53.655  0.00  0.00     0.001 A 
ATOM     31  C29  11 d           8.551  47.132  54.317  0.00  0.00     0.007 A 
ENDBRANCH  25  26
ENDBRANCH  24  25
ENDBRANCH  21  24
BRANCH  18  32
ATOM     32  C17  11 d           5.723  41.442  49.959  0.00  0.00     0.292 C 
ATOM     33  O3   11 d           6.851  41.140  50.436  0.00  0.00    -0.259 OA
BRANCH  32  34
ATOM     34  O4   11 d           5.217  40.770  48.799  0.00  0.00    -0.323 OA
ATOM     35  C18  11 d           5.474  41.474  47.557  0.00  0.00     0.213 C 
ENDBRANCH  32  34
ENDBRANCH  18  32
TORSDOF 5
ENDMDL
MODEL 2
REMARK VINA RESULT:     -10.1      2.054      4.912
REMARK  5 active torsions:
REMARK  status: ('A' for Active; 'I' for Inactive)
REMARK    1  A    between atoms: C16_18  and  C17_19 
REMARK    2  A    between atoms: C17_19  and  O4_21 
REMARK    3  A    between atoms: N1_25  and  C22_28 
REMARK    4  A    between atoms: C22_28  and  C23_29 
REMARK    5  A    between atoms: C23_29  and  C24_30 
ROOT
ATOM      1  C1   11 d           1.508  43.261  51.261  0.00  0.00     0.156 A 
ATOM      2  C2   11 d           1.836  43.425  52.591  0.00  0.00     0.060 A 
ATOM      3  C3   11 d           0.799  43.528  53.530  0.00  0.00     0.196 A 
ATOM      4  C4   11 d          -0.541  43.502  53.071  0.00  0.00     0.049 A 
ATOM      5  C5   11 d          -0.764  43.364  51.672  0.00  0.00     0.091 A 
ATOM      6  O1   11 d           0.256  43.242  50.837  0.00  0.00    -0.303 OA
ATOM      7  C6   11 d          -2.071  43.369  51.171  0.00  0.00     0.045 A 
ATOM      8  C7   11 d          -3.176  43.522  52.032  0.00  0.00    -0.053 A 
ATOM      9  C8   11 d          -2.964  43.588  53.435  0.00  0.00    -0.055 A 
ATOM     10  C9   11 d          -1.646  43.613  53.937  0.00  0.00     0.025 A 
ATOM     11  C10  11 d          -4.102  43.810  54.403  0.00  0.00     0.049 C 
ATOM     12  C11  11 d          -4.562  43.441  51.436  0.00  0.00     0.049 C 
ATOM     13  O2   11 d           1.067  43.642  54.754  0.00  0.00    -0.287 OA
ATOM     14  C12  11 d           3.336  43.472  52.799  0.00  0.00     0.161 A 
ATOM     15  C13  11 d           3.884  44.784  53.364  0.00  0.00    -0.030 A 
ATOM     16  C14  11 d           5.263  44.885  53.649  0.00  0.00     0.011 A 
ATOM     17  C15  11 d           5.824  46.081  54.120  0.00  0.00     0.018 A 
ATOM     18  C16  11 d           5.019  47.219  54.325  0.00  0.00     0.039 A 
ATOM     19  C19  11 d           3.636  47.116  54.087  0.00  0.00     0.018 A 
ATOM     20  C20  11 d           3.076  45.916  53.624  0.00  0.00     0.011 A 
ATOM     21  N1   11 d           3.849  43.192  51.401  0.00  0.00    -0.333 N 
ATOM     22  C21  11 d           2.741  43.162  50.507  0.00  0.00     0.279 A 
ATOM     23  O5   11 d           2.809  43.074  49.232  0.00  0.00    -0.265 OA
ENDROOT
BRANCH  21  24
ATOM     24  C22  11 d           5.300  42.981  51.068  0.00  0.00     0.132 C 
BRANCH  24  25
ATOM     25  C23  11 d           5.901  43.907  49.999  0.00  0.00     0.058 C 
BRANCH  25  26
ATOM     26  C24  11 d           7.253  44.529  50.305  0.00  0.00    -0.057 A 
ATOM     27  C25  11 d           7.269  45.729  51.049  0.00  0.00     0.007 A 
ATOM     28  C26  11 d           8.481  46.330  51.421  0.00  0.00     0.001 A 
ATOM     29  C27  11 d           9.697  45.730  51.070  0.00  0.00     0.000 A 
ATOM     30  C28  11 d           9.701  44.526  50.356  0.00  0.00     0.001 A 
ATOM     31  C29  11 d           8.490  43.921  49.984  0.00  0.00     0.007 A 
ENDBRANCH  25  26
ENDBRANCH  24  25
ENDBRANCH  21  24
BRANCH  18  32
ATOM     32  C17  11 d           5.614  48.514  54.757  0.00  0.00     0.292 C 
ATOM     33  O3   11 d           4.883  49.537  54.863  0.00  0.00    -0.259 OA
BRANCH  32  34
ATOM     34  O4   11 d           7.024  48.596  55.003  0.00  0.00    -0.323 OA
ATOM     35  C18  11 d           7.784  49.114  53.881  0.00  0.00     0.213 C 
ENDBRANCH  32  34
ENDBRANCH  18  32
TORSDOF 5
ENDMDL
MODEL 3
REMARK VINA RESULT:      -9.9      2.177      4.808
REMARK  5 active torsions:
REMARK  status: ('A' for Active; 'I' for Inactive)
REMARK    1  A    between atoms: C16_18  and  C17_19 
REMARK    2  A    between atoms: C17_19  and  O4_21 
REMARK    3  A    between atoms: N1_25  and  C22_28 
REMARK    4  A    between atoms: C22_28  and  C23_29 
REMARK    5  A    between atoms: C23_29  and  C24_30 
ROOT
ATOM      1  C1   11 d           0.399  44.087  52.773  0.00  0.00     0.156 A 
ATOM      2  C2   11 d           1.036  44.253  53.985  0.00  0.00     0.060 A 
ATOM      3  C3   11 d           0.300  44.761  55.066  0.00  0.00     0.196 A 
ATOM      4  C4   11 d          -1.054  45.123  54.858  0.00  0.00     0.049 A 
ATOM      5  C5   11 d          -1.600  44.943  53.556  0.00  0.00     0.091 A 
ATOM      6  O1   11 d          -0.863  44.430  52.583  0.00  0.00    -0.303 OA
ATOM      7  C6   11 d          -2.923  45.319  53.297  0.00  0.00     0.045 A 
ATOM      8  C7   11 d          -3.724  45.891  54.306  0.00  0.00    -0.053 A 
ATOM      9  C8   11 d          -3.209  46.007  55.625  0.00  0.00    -0.055 A 
ATOM     10  C9   11 d          -1.866  45.654  55.878  0.00  0.00     0.025 A 
ATOM     11  C10  11 d          -3.998  46.662  56.733  0.00  0.00     0.049 C 
ATOM     12  C11  11 d          -5.166  46.203  53.981  0.00  0.00     0.049 C 
ATOM     13  O2   11 d           0.843  44.890  56.193  0.00  0.00    -0.287 OA
ATOM     14  C12  11 d           2.491  43.837  53.918  0.00  0.00     0.161 A 
ATOM     15  C13  11 d           3.509  44.951  54.177  0.00  0.00    -0.030 A 
ATOM     16  C14  11 d           4.884  44.632  54.197  0.00  0.00     0.011 A 
ATOM     17  C15  11 d           5.859  45.624  54.380  0.00  0.00     0.018 A 
ATOM     18  C16  11 d           5.488  46.971  54.552  0.00  0.00     0.039 A 
ATOM     19  C19  11 d           4.118  47.293  54.579  0.00  0.00     0.018 A 
ATOM     20  C20  11 d           3.144  46.299  54.403  0.00  0.00     0.011 A 
ATOM     21  N1   11 d           2.590  43.289  52.509  0.00  0.00    -0.333 N 
ATOM     22  C21  11 d           1.358  43.536  51.838  0.00  0.00     0.279 A 
ATOM     23  O5   11 d           1.124  43.320  50.598  0.00  0.00    -0.265 OA
ENDROOT
BRANCH  21  24
ATOM     24  C22  11 d           3.808  42.599  51.962  0.00  0.00     0.132 C 
BRANCH  24  25
ATOM     25  C23  11 d           4.266  43.025  50.558  0.00  0.00     0.058 C 
BRANCH  25  26
ATOM     26  C24  11 d           5.647  43.648  50.441  0.00  0.00    -0.057 A 
ATOM     27  C25  11 d           6.647  42.905  49.775  0.00  0.00     0.007 A 
ATOM     28  C26  11 d           7.928  43.439  49.576  0.00  0.00     0.001 A 
ATOM     29  C27  11 d           8.225  44.733  50.021  0.00  0.00     0.000 A 
ATOM     30  C28  11 d           7.238  45.495  50.659  0.00  0.00     0.001 A 
ATOM     31  C29  11 d           5.955  44.964  50.859  0.00  0.00     0.007 A 
ENDBRANCH  25  26
ENDBRANCH  24  25
ENDBRANCH  21  24
BRANCH  18  32
ATOM     32  C17  11 d           6.515  48.042  54.676  0.00  0.00     0.292 C 
ATOM     33  O3   11 d           6.171  49.206  55.021  0.00  0.00    -0.259 OA
BRANCH  32  34
ATOM     34  O4   11 d           7.881  47.750  54.356  0.00  0.00    -0.323 OA
ATOM     35  C18  11 d           8.303  48.264  53.066  0.00  0.00     0.213 C 
ENDBRANCH  32  34
ENDBRANCH  18  32
TORSDOF 5
ENDMDL
MODEL 4
REMARK VINA RESULT:      -9.6      4.356      9.070
REMARK  5 active torsions:
REMARK  status: ('A' for Active; 'I' for Inactive)
REMARK    1  A    between atoms: C16_18  and  C17_19 
REMARK    2  A    between atoms: C17_19  and  O4_21 
REMARK    3  A    between atoms: N1_25  and  C22_28 
REMARK    4  A    between atoms: C22_28  and  C23_29 
REMARK    5  A    between atoms: C23_29  and  C24_30 
ROOT
ATOM      1  C1   11 d           3.745  42.820  50.281  0.00  0.00     0.156 A 
ATOM      2  C2   11 d           4.528  41.838  49.712  0.00  0.00     0.060 A 
ATOM      3  C3   11 d           5.919  42.020  49.685  0.00  0.00     0.196 A 
ATOM      4  C4   11 d           6.458  43.221  50.206  0.00  0.00     0.049 A 
ATOM      5  C5   11 d           5.554  44.183  50.737  0.00  0.00     0.091 A 
ATOM      6  O1   11 d           4.253  43.942  50.761  0.00  0.00    -0.303 OA
ATOM      7  C6   11 d           6.041  45.399  51.230  0.00  0.00     0.045 A 
ATOM      8  C7   11 d           7.418  45.696  51.195  0.00  0.00    -0.053 A 
ATOM      9  C8   11 d           8.333  44.712  50.732  0.00  0.00    -0.055 A 
ATOM     10  C9   11 d           7.839  43.498  50.209  0.00  0.00     0.025 A 
ATOM     11  C10  11 d           9.813  44.991  50.618  0.00  0.00     0.049 C 
ATOM     12  C11  11 d           7.885  46.993  51.813  0.00  0.00     0.049 C 
ATOM     13  O2   11 d           6.662  41.125  49.205  0.00  0.00    -0.287 OA
ATOM     14  C12  11 d           3.694  40.686  49.188  0.00  0.00     0.161 A 
ATOM     15  C13  11 d           3.766  40.452  47.677  0.00  0.00    -0.030 A 
ATOM     16  C14  11 d           3.070  39.358  47.119  0.00  0.00     0.011 A 
ATOM     17  C15  11 d           3.062  39.129  45.735  0.00  0.00     0.018 A 
ATOM     18  C16  11 d           3.756  39.990  44.862  0.00  0.00     0.039 A 
ATOM     19  C19  11 d           4.490  41.056  45.412  0.00  0.00     0.018 A 
ATOM     20  C20  11 d           4.503  41.280  46.797  0.00  0.00     0.011 A 
ATOM     21  N1   11 d           2.303  41.083  49.639  0.00  0.00    -0.333 N 
ATOM     22  C21  11 d           2.364  42.390  50.202  0.00  0.00     0.279 A 
ATOM     23  O5   11 d           1.360  43.093  50.574  0.00  0.00    -0.265 OA
ENDROOT
BRANCH  21  24
ATOM     24  C22  11 d           1.094  40.201  49.500  0.00  0.00     0.132 C 
BRANCH  24  25
ATOM     25  C23  11 d          -0.087  40.777  48.701  0.00  0.00     0.058 C 
BRANCH  25  26
ATOM     26  C24  11 d           0.159  41.091  47.236  0.00  0.00    -0.057 A 
ATOM     27  C25  11 d          -0.415  40.229  46.275  0.00  0.00     0.007 A 
ATOM     28  C26  11 d          -0.282  40.489  44.903  0.00  0.00     0.001 A 
ATOM     29  C27  11 d           0.411  41.626  44.469  0.00  0.00     0.000 A 
ATOM     30  C28  11 d           0.963  42.507  45.407  0.00  0.00     0.001 A 
ATOM     31  C29  11 d           0.831  42.251  46.781  0.00  0.00     0.007 A 
ENDBRANCH  25  26
ENDBRANCH  24  25
ENDBRANCH  21  24
BRANCH  18  32
ATOM     32  C17  11 d           3.697  39.798  43.386  0.00  0.00     0.292 C 
ATOM     33  O3   11 d           2.632  39.389  42.847  0.00  0.00    -0.259 OA
BRANCH  32  34
ATOM     34  O4   11 d           4.869  40.038  42.596  0.00  0.00    -0.323 OA
ATOM     35  C18  11 d           5.825  38.947  42.623  0.00  0.00     0.213 C 
ENDBRANCH  32  34
ENDBRANCH  18  32
TORSDOF 5
ENDMDL
MODEL 5
REMARK VINA RESULT:      -9.5      2.241      7.318
REMARK  5 active torsions:
REMARK  status: ('A' for Active; 'I' for Inactive)
REMARK    1  A    between atoms: C16_18  and  C17_19 
REMARK    2  A    between atoms: C17_19  and  O4_21 
REMARK    3  A    between atoms: N1_25  and  C22_28 
REMARK    4  A    between atoms: C22_28  and  C23_29 
REMARK    5  A    between atoms: C23_29  and  C24_30 
ROOT
ATOM      1  C1   11 d           5.071  42.843  49.706  0.00  0.00     0.156 A 
ATOM      2  C2   11 d           4.068  42.162  50.363  0.00  0.00     0.060 A 
ATOM      3  C3   11 d           3.392  41.141  49.679  0.00  0.00     0.196 A 
ATOM      4  C4   11 d           3.738  40.879  48.330  0.00  0.00     0.049 A 
ATOM      5  C5   11 d           4.765  41.668  47.740  0.00  0.00     0.091 A 
ATOM      6  O1   11 d           5.388  42.599  48.446  0.00  0.00    -0.303 OA
ATOM      7  C6   11 d           5.115  41.467  46.400  0.00  0.00     0.045 A 
ATOM      8  C7   11 d           4.453  40.501  45.615  0.00  0.00    -0.053 A 
ATOM      9  C8   11 d           3.477  39.662  46.218  0.00  0.00    -0.055 A 
ATOM     10  C9   11 d           3.105  39.885  47.560  0.00  0.00     0.025 A 
ATOM     11  C10  11 d           2.695  38.649  45.416  0.00  0.00     0.049 C 
ATOM     12  C11  11 d           4.931  40.282  44.199  0.00  0.00     0.049 C 
ATOM     13  O2   11 d           2.496  40.477  50.263  0.00  0.00    -0.287 OA
ATOM     14  C12  11 d           3.869  42.676  51.774  0.00  0.00     0.161 A 
ATOM     15  C13  11 d           2.498  43.292  52.066  0.00  0.00    -0.030 A 
ATOM     16  C14  11 d           2.210  43.734  53.375  0.00  0.00     0.011 A 
ATOM     17  C15  11 d           0.989  44.352  53.683  0.00  0.00     0.018 A 
ATOM     18  C16  11 d           0.012  44.546  52.687  0.00  0.00     0.039 A 
ATOM     19  C19  11 d           0.271  44.068  51.389  0.00  0.00     0.018 A 
ATOM     20  C20  11 d           1.490  43.443  51.085  0.00  0.00     0.011 A 
ATOM     21  N1   11 d           4.989  43.689  51.893  0.00  0.00    -0.333 N 
ATOM     22  C21  11 d           5.619  43.822  50.623  0.00  0.00     0.279 A 
ATOM     23  O5   11 d           6.523  44.677  50.321  0.00  0.00    -0.265 OA
ENDROOT
BRANCH  21  24
ATOM     24  C22  11 d           5.341  44.402  53.169  0.00  0.00     0.132 C 
BRANCH  24  25
ATOM     25  C23  11 d           5.255  45.936  53.144  0.00  0.00     0.058 C 
BRANCH  25  26
ATOM     26  C24  11 d           6.522  46.705  53.475  0.00  0.00    -0.057 A 
ATOM     27  C25  11 d           6.401  47.847  54.297  0.00  0.00     0.007 A 
ATOM     28  C26  11 d           7.533  48.573  54.694  0.00  0.00     0.001 A 
ATOM     29  C27  11 d           8.809  48.157  54.292  0.00  0.00     0.000 A 
ATOM     30  C28  11 d           8.952  47.011  53.500  0.00  0.00     0.001 A 
ATOM     31  C29  11 d           7.820  46.282  53.101  0.00  0.00     0.007 A 
ENDBRANCH  25  26
ENDBRANCH  24  25
ENDBRANCH  21  24
BRANCH  18  32
ATOM     32  C17  11 d          -1.258  45.263  52.985  0.00  0.00     0.292 C 
ATOM     33  O3   11 d          -1.597  45.470  54.183  0.00  0.00    -0.259 OA
BRANCH  32  34
ATOM     34  O4   11 d          -2.108  45.671  51.906  0.00  0.00    -0.323 OA
ATOM     35  C18  11 d          -3.219  46.508  52.319  0.00  0.00     0.213 C 
ENDBRANCH  32  34
ENDBRANCH  18  32
TORSDOF 5
ENDMDL
MODEL 6
REMARK VINA RESULT:      -9.2      2.101      8.444
REMARK  5 active torsions:
REMARK  status: ('A' for Active; 'I' for Inactive)
REMARK    1  A    between atoms: C16_18  and  C17_19 
REMARK    2  A    between atoms: C17_19  and  O4_21 
REMARK    3  A    between atoms: N1_25  and  C22_28 
REMARK    4  A    between atoms: C22_28  and  C23_29 
REMARK    5  A    between atoms: C23_29  and  C24_30 
ROOT
ATOM      1  C1   11 d           4.844  44.633  51.932  0.00  0.00     0.156 A 
ATOM      2  C2   11 d           3.865  45.573  52.178  0.00  0.00     0.060 A 
ATOM      3  C3   11 d           4.230  46.770  52.812  0.00  0.00     0.196 A 
ATOM      4  C4   11 d           5.577  46.947  53.210  0.00  0.00     0.049 A 
ATOM      5  C5   11 d           6.497  45.896  52.938  0.00  0.00     0.091 A 
ATOM      6  O1   11 d           6.100  44.801  52.310  0.00  0.00    -0.303 OA
ATOM      7  C6   11 d           7.831  46.014  53.345  0.00  0.00     0.045 A 
ATOM      8  C7   11 d           8.279  47.157  54.038  0.00  0.00    -0.053 A 
ATOM      9  C8   11 d           7.384  48.240  54.250  0.00  0.00    -0.055 A 
ATOM     10  C9   11 d           6.033  48.108  53.865  0.00  0.00     0.025 A 
ATOM     11  C10  11 d           7.789  49.465  55.034  0.00  0.00     0.049 C 
ATOM     12  C11  11 d           9.747  47.254  54.381  0.00  0.00     0.049 C 
ATOM     13  O2   11 d           3.366  47.662  53.018  0.00  0.00    -0.287 OA
ATOM     14  C12  11 d           2.505  45.110  51.697  0.00  0.00     0.161 A 
ATOM     15  C13  11 d           1.443  44.938  52.785  0.00  0.00    -0.030 A 
ATOM     16  C14  11 d           0.132  44.573  52.412  0.00  0.00     0.011 A 
ATOM     17  C15  11 d          -0.865  44.354  53.374  0.00  0.00     0.018 A 
ATOM     18  C16  11 d          -0.582  44.497  54.746  0.00  0.00     0.039 A 
ATOM     19  C19  11 d           0.710  44.905  55.127  0.00  0.00     0.018 A 
ATOM     20  C20  11 d           1.704  45.131  54.163  0.00  0.00     0.011 A 
ATOM     21  N1   11 d           2.849  43.798  51.022  0.00  0.00    -0.333 N 
ATOM     22  C21  11 d           4.223  43.510  51.260  0.00  0.00     0.279 A 
ATOM     23  O5   11 d           4.827  42.426  50.944  0.00  0.00    -0.265 OA
ENDROOT
BRANCH  21  24
ATOM     24  C22  11 d           1.865  42.978  50.235  0.00  0.00     0.132 C 
BRANCH  24  25
ATOM     25  C23  11 d           2.404  41.692  49.589  0.00  0.00     0.058 C 
BRANCH  25  26
ATOM     26  C24  11 d           2.793  41.765  48.122  0.00  0.00    -0.057 A 
ATOM     27  C25  11 d           4.083  41.319  47.763  0.00  0.00     0.007 A 
ATOM     28  C26  11 d           4.491  41.301  46.421  0.00  0.00     0.001 A 
ATOM     29  C27  11 d           3.608  41.710  45.414  0.00  0.00     0.000 A 
ATOM     30  C28  11 d           2.315  42.130  45.749  0.00  0.00     0.001 A 
ATOM     31  C29  11 d           1.903  42.148  47.090  0.00  0.00     0.007 A 
ENDBRANCH  25  26
ENDBRANCH  24  25
ENDBRANCH  21  24
BRANCH  18  32
ATOM     32  C17  11 d          -1.612  44.198  55.780  0.00  0.00     0.292 C 
ATOM     33  O3   11 d          -2.522  43.358  55.536  0.00  0.00    -0.259 OA
BRANCH  32  34
ATOM     34  O4   11 d          -1.586  44.905  57.027  0.00  0.00    -0.323 OA
ATOM     35  C18  11 d          -2.351  46.137  57.017  0.00  0.00     0.213 C 
ENDBRANCH  32  34
ENDBRANCH  18  32
TORSDOF 5
ENDMDL
MODEL 7
REMARK VINA RESULT:      -9.2      3.778      7.231
REMARK  5 active torsions:
REMARK  status: ('A' for Active; 'I' for Inactive)
REMARK    1  A    between atoms: C16_18  and  C17_19 
REMARK    2  A    between atoms: C17_19  and  O4_21 
REMARK    3  A    between atoms: N1_25  and  C22_28 
REMARK    4  A    between atoms: C22_28  and  C23_29 
REMARK    5  A    between atoms: C23_29  and  C24_30 
ROOT
ATOM      1  C1   11 d           3.394  40.807  47.650  0.00  0.00     0.156 A 
ATOM      2  C2   11 d           2.770  40.736  48.878  0.00  0.00     0.060 A 
ATOM      3  C3   11 d           1.434  40.311  48.928  0.00  0.00     0.196 A 
ATOM      4  C4   11 d           0.769  40.012  47.714  0.00  0.00     0.049 A 
ATOM      5  C5   11 d           1.498  40.154  46.501  0.00  0.00     0.091 A 
ATOM      6  O1   11 d           2.767  40.531  46.519  0.00  0.00    -0.303 OA
ATOM      7  C6   11 d           0.869  39.903  45.276  0.00  0.00     0.045 A 
ATOM      8  C7   11 d          -0.487  39.524  45.221  0.00  0.00    -0.053 A 
ATOM      9  C8   11 d          -1.201  39.312  46.432  0.00  0.00    -0.055 A 
ATOM     10  C9   11 d          -0.575  39.593  47.664  0.00  0.00     0.025 A 
ATOM     11  C10  11 d          -2.670  38.961  46.438  0.00  0.00     0.049 C 
ATOM     12  C11  11 d          -1.083  39.194  43.873  0.00  0.00     0.049 C 
ATOM     13  O2   11 d           0.849  40.202  50.036  0.00  0.00    -0.287 OA
ATOM     14  C12  11 d           3.692  41.159  50.003  0.00  0.00     0.161 A 
ATOM     15  C13  11 d           3.254  42.399  50.786  0.00  0.00    -0.030 A 
ATOM     16  C14  11 d           4.024  42.820  51.891  0.00  0.00     0.011 A 
ATOM     17  C15  11 d           3.694  43.979  52.610  0.00  0.00     0.018 A 
ATOM     18  C16  11 d           2.577  44.755  52.246  0.00  0.00     0.039 A 
ATOM     19  C19  11 d           1.777  44.320  51.174  0.00  0.00     0.018 A 
ATOM     20  C20  11 d           2.103  43.157  50.460  0.00  0.00     0.011 A 
ATOM     21  N1   11 d           4.997  41.380  49.265  0.00  0.00    -0.333 N 
ATOM     22  C21  11 d           4.756  41.248  47.867  0.00  0.00     0.279 A 
ATOM     23  O5   11 d           5.601  41.490  46.936  0.00  0.00    -0.265 OA
ENDROOT
BRANCH  21  24
ATOM     24  C22  11 d           6.304  41.679  49.945  0.00  0.00     0.132 C 
BRANCH  24  25
ATOM     25  C23  11 d           7.198  42.736  49.279  0.00  0.00     0.058 C 
BRANCH  25  26
ATOM     26  C24  11 d           7.537  43.970  50.098  0.00  0.00    -0.057 A 
ATOM     27  C25  11 d           8.900  44.320  50.223  0.00  0.00     0.007 A 
ATOM     28  C26  11 d           9.286  45.478  50.913  0.00  0.00     0.001 A 
ATOM     29  C27  11 d           8.313  46.317  51.473  0.00  0.00     0.000 A 
ATOM     30  C28  11 d           6.956  46.001  51.336  0.00  0.00     0.001 A 
ATOM     31  C29  11 d           6.567  44.843  50.645  0.00  0.00     0.007 A 
ENDBRANCH  25  26
ENDBRANCH  24  25
ENDBRANCH  21  24
BRANCH  18  32
ATOM     32  C17  11 d           2.258  46.024  52.956  0.00  0.00     0.292 C 
ATOM     33  O3   11 d           3.144  46.914  53.083  0.00  0.00    -0.259 OA
BRANCH  32  34
ATOM     34  O4   11 d           0.957  46.204  53.530  0.00  0.00    -0.323 OA
ATOM     35  C18  11 d           0.856  45.750  54.904  0.00  0.00     0.213 C 
ENDBRANCH  32  34
ENDBRANCH  18  32
TORSDOF 5
ENDMDL
MODEL 8
REMARK VINA RESULT:      -9.1      1.647      2.073
REMARK  5 active torsions:
REMARK  status: ('A' for Active; 'I' for Inactive)
REMARK    1  A    between atoms: C16_18  and  C17_19 
REMARK    2  A    between atoms: C17_19  and  O4_21 
REMARK    3  A    between atoms: N1_25  and  C22_28 
REMARK    4  A    between atoms: C22_28  and  C23_29 
REMARK    5  A    between atoms: C23_29  and  C24_30 
ROOT
ATOM      1  C1   11 d           2.514  44.963  54.291  0.00  0.00     0.156 A 
ATOM      2  C2   11 d           2.051  45.029  52.994  0.00  0.00     0.060 A 
ATOM      3  C3   11 d           0.671  45.160  52.780  0.00  0.00     0.196 A 
ATOM      4  C4   11 d          -0.193  45.177  53.902  0.00  0.00     0.049 A 
ATOM      5  C5   11 d           0.390  45.066  55.195  0.00  0.00     0.091 A 
ATOM      6  O1   11 d           1.703  44.975  55.335  0.00  0.00    -0.303 OA
ATOM      7  C6   11 d          -0.430  45.044  56.329  0.00  0.00     0.045 A 
ATOM      8  C7   11 d          -1.832  45.114  56.212  0.00  0.00    -0.053 A 
ATOM      9  C8   11 d          -2.417  45.297  54.929  0.00  0.00    -0.055 A 
ATOM     10  C9   11 d          -1.592  45.290  53.784  0.00  0.00     0.025 A 
ATOM     11  C10  11 d          -3.914  45.322  54.733  0.00  0.00     0.049 C 
ATOM     12  C11  11 d          -2.654  45.162  57.478  0.00  0.00     0.049 C 
ATOM     13  O2   11 d           0.222  45.259  51.608  0.00  0.00    -0.287 OA
ATOM     14  C12  11 d           3.181  44.937  51.988  0.00  0.00     0.161 A 
ATOM     15  C13  11 d           3.139  43.723  51.057  0.00  0.00    -0.030 A 
ATOM     16  C14  11 d           4.119  43.598  50.048  0.00  0.00     0.011 A 
ATOM     17  C15  11 d           4.155  42.479  49.203  0.00  0.00     0.018 A 
ATOM     18  C16  11 d           3.207  41.447  49.338  0.00  0.00     0.039 A 
ATOM     19  C19  11 d           2.199  41.582  50.310  0.00  0.00     0.018 A 
ATOM     20  C20  11 d           2.159  42.705  51.150  0.00  0.00     0.011 A 
ATOM     21  N1   11 d           4.397  44.924  52.891  0.00  0.00    -0.333 N 
ATOM     22  C21  11 d           3.958  44.851  54.244  0.00  0.00     0.279 A 
ATOM     23  O5   11 d           4.710  44.698  55.268  0.00  0.00    -0.265 OA
ENDROOT
BRANCH  21  24
ATOM     24  C22  11 d           5.813  44.988  52.390  0.00  0.00     0.132 C 
BRANCH  24  25
ATOM     25  C23  11 d           6.331  46.373  51.971  0.00  0.00     0.058 C 
BRANCH  25  26
ATOM     26  C24  11 d           7.391  47.010  52.853  0.00  0.00    -0.057 A 
ATOM     27  C25  11 d           6.958  47.891  53.868  0.00  0.00     0.007 A 
ATOM     28  C26  11 d           7.873  48.470  54.759  0.00  0.00     0.001 A 
ATOM     29  C27  11 d           9.236  48.162  54.661  0.00  0.00     0.000 A 
ATOM     30  C28  11 d           9.682  47.269  53.678  0.00  0.00     0.001 A 
ATOM     31  C29  11 d           8.768  46.687  52.786  0.00  0.00     0.007 A 
ENDBRANCH  25  26
ENDBRANCH  24  25
ENDBRANCH  21  24
BRANCH  18  32
ATOM     32  C17  11 d           3.278  40.222  48.494  0.00  0.00     0.292 C 
ATOM     33  O3   11 d           2.682  39.171  48.859  0.00  0.00    -0.259 OA
BRANCH  32  34
ATOM     34  O4   11 d           4.063  40.236  47.295  0.00  0.00    -0.323 OA
ATOM     35  C18  11 d           3.293  40.505  46.095  0.00  0.00     0.213 C 
ENDBRANCH  32  34
ENDBRANCH  18  32
TORSDOF 5
ENDMDL
MODEL 9
REMARK VINA RESULT:      -8.6      4.827      9.581
REMARK  5 active torsions:
REMARK  status: ('A' for Active; 'I' for Inactive)
REMARK    1  A    between atoms: C16_18  and  C17_19 
REMARK    2  A    between atoms: C17_19  and  O4_21 
REMARK    3  A    between atoms: N1_25  and  C22_28 
REMARK    4  A    between atoms: C22_28  and  C23_29 
REMARK    5  A    between atoms: C23_29  and  C24_30 
ROOT
ATOM      1  C1   11 d           2.243  43.002  50.654  0.00  0.00     0.156 A 
ATOM      2  C2   11 d           2.637  42.090  49.697  0.00  0.00     0.060 A 
ATOM      3  C3   11 d           3.985  42.066  49.308  0.00  0.00     0.196 A 
ATOM      4  C4   11 d           4.876  43.005  49.883  0.00  0.00     0.049 A 
ATOM      5  C5   11 d           4.354  43.925  50.835  0.00  0.00     0.091 A 
ATOM      6  O1   11 d           3.078  43.879  51.184  0.00  0.00    -0.303 OA
ATOM      7  C6   11 d           5.192  44.892  51.401  0.00  0.00     0.045 A 
ATOM      8  C7   11 d           6.549  44.982  51.031  0.00  0.00    -0.053 A 
ATOM      9  C8   11 d           7.093  44.023  50.135  0.00  0.00    -0.055 A 
ATOM     10  C9   11 d           6.242  43.066  49.543  0.00  0.00     0.025 A 
ATOM     11  C10  11 d           8.524  44.101  49.658  0.00  0.00     0.049 C 
ATOM     12  C11  11 d           7.415  45.999  51.736  0.00  0.00     0.049 C 
ATOM     13  O2   11 d           4.381  41.222  48.464  0.00  0.00    -0.287 OA
ATOM     14  C12  11 d           1.477  41.243  49.215  0.00  0.00     0.161 A 
ATOM     15  C13  11 d           1.124  41.388  47.733  0.00  0.00    -0.030 A 
ATOM     16  C14  11 d           0.098  40.585  47.191  0.00  0.00     0.011 A 
ATOM     17  C15  11 d          -0.298  40.716  45.851  0.00  0.00     0.018 A 
ATOM     18  C16  11 d           0.324  41.656  45.008  0.00  0.00     0.039 A 
ATOM     19  C19  11 d           1.379  42.430  45.526  0.00  0.00     0.018 A 
ATOM     20  C20  11 d           1.779  42.293  46.864  0.00  0.00     0.011 A 
ATOM     21  N1   11 d           0.356  41.714  50.119  0.00  0.00    -0.333 N 
ATOM     22  C21  11 d           0.826  42.813  50.892  0.00  0.00     0.279 A 
ATOM     23  O5   11 d           0.116  43.540  51.672  0.00  0.00    -0.265 OA
ENDROOT
BRANCH  21  24
ATOM     24  C22  11 d          -1.008  41.083  50.160  0.00  0.00     0.132 C 
BRANCH  24  25
ATOM     25  C23  11 d          -1.197  39.919  51.145  0.00  0.00     0.058 C 
BRANCH  25  26
ATOM     26  C24  11 d          -1.994  38.722  50.656  0.00  0.00    -0.057 A 
ATOM     27  C25  11 d          -2.203  38.597  49.265  0.00  0.00     0.007 A 
ATOM     28  C26  11 d          -2.878  37.488  48.735  0.00  0.00     0.001 A 
ATOM     29  C27  11 d          -3.339  36.475  49.586  0.00  0.00     0.000 A 
ATOM     30  C28  11 d          -3.118  36.569  50.965  0.00  0.00     0.001 A 
ATOM     31  C29  11 d          -2.442  37.677  51.499  0.00  0.00     0.007 A 
ENDBRANCH  25  26
ENDBRANCH  24  25
ENDBRANCH  21  24
BRANCH  18  32
ATOM     32  C17  11 d          -0.135  41.853  43.605  0.00  0.00     0.292 C 
ATOM     33  O3   11 d          -0.279  43.021  43.149  0.00  0.00    -0.259 OA
BRANCH  32  34
ATOM     34  O4   11 d          -0.453  40.711  42.799  0.00  0.00    -0.323 OA
ATOM     35  C18  11 d           0.703  40.096  42.174  0.00  0.00     0.213 C 
ENDBRANCH  32  34
ENDBRANCH  18  32
TORSDOF 5
ENDMDL
MODEL 10
REMARK VINA RESULT:      -8.4      3.586      8.700
REMARK  5 active torsions:
REMARK  status: ('A' for Active; 'I' for Inactive)
REMARK    1  A    between atoms: C16_18  and  C17_19 
REMARK    2  A    between atoms: C17_19  and  O4_21 
REMARK    3  A    between atoms: N1_25  and  C22_28 
REMARK    4  A    between atoms: C22_28  and  C23_29 
REMARK    5  A    between atoms: C23_29  and  C24_30 
ROOT
ATOM      1  C1   11 d           3.341  44.514  51.731  0.00  0.00     0.156 A 
ATOM      2  C2   11 d           3.619  43.317  51.106  0.00  0.00     0.060 A 
ATOM      3  C3   11 d           4.935  43.065  50.693  0.00  0.00     0.196 A 
ATOM      4  C4   11 d           5.916  44.067  50.897  0.00  0.00     0.049 A 
ATOM      5  C5   11 d           5.511  45.280  51.520  0.00  0.00     0.091 A 
ATOM      6  O1   11 d           4.258  45.448  51.915  0.00  0.00    -0.303 OA
ATOM      7  C6   11 d           6.439  46.310  51.710  0.00  0.00     0.045 A 
ATOM      8  C7   11 d           7.774  46.172  51.278  0.00  0.00    -0.053 A 
ATOM      9  C8   11 d           8.202  44.937  50.720  0.00  0.00    -0.055 A 
ATOM     10  C9   11 d           7.259  43.910  50.503  0.00  0.00     0.025 A 
ATOM     11  C10  11 d           9.602  44.748  50.188  0.00  0.00     0.049 C 
ATOM     12  C11  11 d           8.742  47.290  51.582  0.00  0.00     0.049 C 
ATOM     13  O2   11 d           5.227  41.967  50.152  0.00  0.00    -0.287 OA
ATOM     14  C12  11 d           2.382  42.453  50.969  0.00  0.00     0.161 A 
ATOM     15  C13  11 d           1.947  42.143  49.535  0.00  0.00    -0.030 A 
ATOM     16  C14  11 d           0.842  41.291  49.322  0.00  0.00     0.011 A 
ATOM     17  C15  11 d           0.372  41.016  48.029  0.00  0.00     0.018 A 
ATOM     18  C16  11 d           0.997  41.586  46.903  0.00  0.00     0.039 A 
ATOM     19  C19  11 d           2.126  42.402  47.101  0.00  0.00     0.018 A 
ATOM     20  C20  11 d           2.600  42.669  48.395  0.00  0.00     0.011 A 
ATOM     21  N1   11 d           1.349  43.273  51.716  0.00  0.00    -0.333 N 
ATOM     22  C21  11 d           1.933  44.522  52.072  0.00  0.00     0.279 A 
ATOM     23  O5   11 d           1.318  45.512  52.603  0.00  0.00    -0.265 OA
ENDROOT
BRANCH  21  24
ATOM     24  C22  11 d          -0.045  42.796  52.011  0.00  0.00     0.132 C 
BRANCH  24  25
ATOM     25  C23  11 d          -1.191  43.561  51.330  0.00  0.00     0.058 C 
BRANCH  25  26
ATOM     26  C24  11 d          -2.064  42.781  50.363  0.00  0.00    -0.057 A 
ATOM     27  C25  11 d          -2.303  43.347  49.091  0.00  0.00     0.007 A 
ATOM     28  C26  11 d          -3.049  42.658  48.124  0.00  0.00     0.001 A 
ATOM     29  C27  11 d          -3.554  41.382  48.407  0.00  0.00     0.000 A 
ATOM     30  C28  11 d          -3.305  40.793  49.653  0.00  0.00     0.001 A 
ATOM     31  C29  11 d          -2.558  41.479  50.622  0.00  0.00     0.007 A 
ENDBRANCH  25  26
ENDBRANCH  24  25
ENDBRANCH  21  24
BRANCH  18  32
ATOM     32  C17  11 d           0.464  41.360  45.531  0.00  0.00     0.292 C 
ATOM     33  O3   11 d           1.249  41.033  44.598  0.00  0.00    -0.259 OA
BRANCH  32  34
ATOM     34  O4   11 d          -0.931  41.560  45.274  0.00  0.00    -0.323 OA
ATOM     35  C18  11 d          -1.250  42.886  44.778  0.00  0.00     0.213 C 
ENDBRANCH  32  34
ENDBRANCH  18  32
TORSDOF 5
ENDMDL
