MODEL 1
REMARK VINA RESULT:     -10.3      0.000      0.000
REMARK  3 active torsions:
REMARK  status: ('A' for Active; 'I' for Inactive)
REMARK       I    between atoms: C1_1  and  N1_2 
REMARK    1  A    between atoms: C4_5  and  C5_6 
REMARK       I    between atoms: C5_6  and  N2_8 
REMARK    2  A    between atoms: N2_8  and  C6_9 
REMARK    3  A    between atoms: N3_14  and  C14_18 
ROOT
ATOM      1  C6   11 d         -13.771 205.202 116.603  0.00  0.00     0.035 C 
ATOM      2  C7   11 d         -14.683 205.307 115.523  0.00  0.00     0.044 C 
ATOM      3  C8   11 d         -14.208 205.748 114.277  0.00  0.00     0.005 A 
ATOM      4  C9   11 d         -14.888 206.048 113.114  0.00  0.00     0.003 A 
ATOM      5  C10  11 d         -13.962 206.601 112.239  0.00  0.00     0.046 A 
ATOM      6  N3   11 d         -12.727 206.629 112.820  0.00  0.00    -0.346 N 
ATOM      7  C11  11 d         -12.867 206.048 114.056  0.00  0.00     0.046 A 
ATOM      8  C12  11 d         -11.933 205.770 115.065  0.00  0.00     0.033 C 
ATOM      9  C13  11 d         -12.385 205.333 116.320  0.00  0.00     0.032 C 
ATOM     10  C16  11 d         -14.372 207.074 110.979  0.00  0.00     0.030 A 
ATOM     11  C17  11 d         -15.725 206.940 110.613  0.00  0.00     0.002 A 
ATOM     12  C18  11 d         -16.652 206.351 111.500  0.00  0.00     0.001 A 
ATOM     13  C19  11 d         -16.240 205.905 112.772  0.00  0.00     0.014 A 
ENDROOT
BRANCH   1  14
ATOM     14  N2   11 d         -14.334 205.089 117.969  0.00  0.00    -0.327 N 
ATOM     15  C5   11 d         -14.087 205.972 119.076  0.00  0.00     0.226 C 
ATOM     16  O1   11 d         -13.281 206.958 118.952  0.00  0.00    -0.273 OA
ATOM     17  H6   11 d         -15.009 204.270 118.134  0.00  0.00     0.169 HD
BRANCH  15  18
ATOM     18  C4   11 d         -14.792 205.778 120.419  0.00  0.00     0.081 C 
ATOM     19  C3   11 d         -15.957 206.794 120.593  0.00  0.00     0.034 C 
ATOM     20  C2   11 d         -16.867 206.507 121.788  0.00  0.00     0.126 C 
ATOM     21  N1   11 d         -17.331 205.087 121.691  0.00  0.00    -0.352 N 
ATOM     22  C1   11 d         -18.727 204.757 121.580  0.00  0.00     0.215 C 
ATOM     23  C21  11 d         -16.235 204.073 121.709  0.00  0.00     0.126 C 
ATOM     24  O2   11 d         -19.600 205.695 121.522  0.00  0.00    -0.274 OA
ATOM     25  C22  11 d         -19.219 203.339 121.528  0.00  0.00     0.117 C 
ATOM     26  C20  11 d         -15.321 204.321 120.508  0.00  0.00     0.034 C 
ENDBRANCH  15  18
ENDBRANCH   1  14
BRANCH   6  27
ATOM     27  C14  11 d         -11.536 207.191 112.141  0.00  0.00     0.125 C 
ATOM     28  C15  11 d         -10.548 208.029 112.943  0.00  0.00     0.027 C 
ENDBRANCH   6  27
TORSDOF 3
ENDMDL
MODEL 2
REMARK VINA RESULT:     -10.3      2.130      2.731
REMARK  3 active torsions:
REMARK  status: ('A' for Active; 'I' for Inactive)
REMARK       I    between atoms: C1_1  and  N1_2 
REMARK    1  A    between atoms: C4_5  and  C5_6 
REMARK       I    between atoms: C5_6  and  N2_8 
REMARK    2  A    between atoms: N2_8  and  C6_9 
REMARK    3  A    between atoms: N3_14  and  C14_18 
ROOT
ATOM      1  C6   11 d         -13.609 205.612 116.346  0.00  0.00     0.035 C 
ATOM      2  C7   11 d         -14.582 205.681 115.318  0.00  0.00     0.044 C 
ATOM      3  C8   11 d         -14.163 205.955 114.007  0.00  0.00     0.005 A 
ATOM      4  C9   11 d         -14.897 206.190 112.862  0.00  0.00     0.003 A 
ATOM      5  C10  11 d         -13.995 206.577 111.879  0.00  0.00     0.046 A 
ATOM      6  N3   11 d         -12.725 206.562 112.377  0.00  0.00    -0.346 N 
ATOM      7  C11  11 d         -12.821 206.122 113.674  0.00  0.00     0.046 A 
ATOM      8  C12  11 d         -11.843 205.872 114.648  0.00  0.00     0.033 C 
ATOM      9  C13  11 d         -12.240 205.601 115.967  0.00  0.00     0.032 C 
ATOM     10  C16  11 d         -14.454 206.952 110.603  0.00  0.00     0.030 A 
ATOM     11  C17  11 d         -15.836 206.891 110.336  0.00  0.00     0.002 A 
ATOM     12  C18  11 d         -16.741 206.471 111.335  0.00  0.00     0.001 A 
ATOM     13  C19  11 d         -16.277 206.124 112.619  0.00  0.00     0.014 A 
ENDROOT
BRANCH   1  14
ATOM     14  N2   11 d         -14.083 205.682 117.748  0.00  0.00    -0.327 N 
ATOM     15  C5   11 d         -14.620 204.600 118.529  0.00  0.00     0.226 C 
ATOM     16  O1   11 d         -14.767 203.439 118.013  0.00  0.00    -0.273 OA
ATOM     17  H6   11 d         -13.995 206.638 118.228  0.00  0.00     0.169 HD
BRANCH  15  18
ATOM     18  C4   11 d         -15.007 204.796 119.995  0.00  0.00     0.081 C 
ATOM     19  C3   11 d         -15.547 203.474 120.613  0.00  0.00     0.034 C 
ATOM     20  C2   11 d         -15.719 203.517 122.133  0.00  0.00     0.126 C 
ATOM     21  N1   11 d         -14.426 203.967 122.736  0.00  0.00    -0.352 N 
ATOM     22  C1   11 d         -13.694 203.135 123.655  0.00  0.00     0.215 C 
ATOM     23  C21  11 d         -13.973 205.322 122.299  0.00  0.00     0.126 C 
ATOM     24  O2   11 d         -14.130 201.963 123.938  0.00  0.00    -0.274 OA
ATOM     25  C22  11 d         -12.418 203.584 124.308  0.00  0.00     0.117 C 
ATOM     26  C20  11 d         -13.769 205.302 120.784  0.00  0.00     0.034 C 
ENDBRANCH  15  18
ENDBRANCH   1  14
BRANCH   6  27
ATOM     27  C14  11 d         -11.544 206.955 111.572  0.00  0.00     0.125 C 
ATOM     28  C15  11 d         -10.602 208.027 112.106  0.00  0.00     0.027 C 
ENDBRANCH   6  27
TORSDOF 3
ENDMDL
MODEL 3
REMARK VINA RESULT:      -9.9      4.499      9.371
REMARK  3 active torsions:
REMARK  status: ('A' for Active; 'I' for Inactive)
REMARK       I    between atoms: C1_1  and  N1_2 
REMARK    1  A    between atoms: C4_5  and  C5_6 
REMARK       I    between atoms: C5_6  and  N2_8 
REMARK    2  A    between atoms: N2_8  and  C6_9 
REMARK    3  A    between atoms: N3_14  and  C14_18 
ROOT
ATOM      1  C6   11 d         -10.668 207.846 113.906  0.00  0.00     0.035 C 
ATOM      2  C7   11 d         -11.671 207.820 112.904  0.00  0.00     0.044 C 
ATOM      3  C8   11 d         -12.908 207.226 113.201  0.00  0.00     0.005 A 
ATOM      4  C9   11 d         -13.994 206.965 112.390  0.00  0.00     0.003 A 
ATOM      5  C10  11 d         -14.886 206.212 113.143  0.00  0.00     0.046 A 
ATOM      6  N3   11 d         -14.392 206.023 114.402  0.00  0.00    -0.346 N 
ATOM      7  C11  11 d         -13.198 206.698 114.456  0.00  0.00     0.046 A 
ATOM      8  C12  11 d         -12.282 206.887 115.501  0.00  0.00     0.033 C 
ATOM      9  C13  11 d         -11.037 207.473 115.227  0.00  0.00     0.032 C 
ATOM     10  C16  11 d         -16.073 205.730 112.564  0.00  0.00     0.030 A 
ATOM     11  C17  11 d         -16.354 206.058 111.222  0.00  0.00     0.002 A 
ATOM     12  C18  11 d         -15.453 206.847 110.475  0.00  0.00     0.001 A 
ATOM     13  C19  11 d         -14.251 207.303 111.054  0.00  0.00     0.014 A 
ENDROOT
BRANCH   1  14
ATOM     14  N2   11 d          -9.279 208.139 113.481  0.00  0.00    -0.327 N 
ATOM     15  C5   11 d          -8.533 209.338 113.751  0.00  0.00     0.226 C 
ATOM     16  O1   11 d          -9.073 210.308 114.386  0.00  0.00    -0.273 OA
ATOM     17  H6   11 d          -8.780 207.362 112.933  0.00  0.00     0.169 HD
BRANCH  15  18
ATOM     18  C4   11 d          -7.075 209.481 113.312  0.00  0.00     0.081 C 
ATOM     19  C3   11 d          -6.230 210.199 114.403  0.00  0.00     0.034 C 
ATOM     20  C2   11 d          -4.721 210.158 114.154  0.00  0.00     0.126 C 
ATOM     21  N1   11 d          -4.321 208.732 113.940  0.00  0.00    -0.352 N 
ATOM     22  C1   11 d          -3.378 208.076 114.807  0.00  0.00     0.215 C 
ATOM     23  C21  11 d          -4.984 208.068 112.778  0.00  0.00     0.126 C 
ATOM     24  O2   11 d          -2.894 208.706 115.814  0.00  0.00    -0.274 OA
ATOM     25  C22  11 d          -2.928 206.661 114.585  0.00  0.00     0.117 C 
ATOM     26  C20  11 d          -6.496 208.073 113.011  0.00  0.00     0.034 C 
ENDBRANCH  15  18
ENDBRANCH   1  14
BRANCH   6  27
ATOM     27  C14  11 d         -15.106 205.231 115.431  0.00  0.00     0.125 C 
ATOM     28  C15  11 d         -14.337 204.714 116.640  0.00  0.00     0.027 C 
ENDBRANCH   6  27
TORSDOF 3
ENDMDL
MODEL 4
REMARK VINA RESULT:      -9.8      1.543      3.229
REMARK  3 active torsions:
REMARK  status: ('A' for Active; 'I' for Inactive)
REMARK       I    between atoms: C1_1  and  N1_2 
REMARK    1  A    between atoms: C4_5  and  C5_6 
REMARK       I    between atoms: C5_6  and  N2_8 
REMARK    2  A    between atoms: N2_8  and  C6_9 
REMARK    3  A    between atoms: N3_14  and  C14_18 
ROOT
ATOM      1  C6   11 d         -14.446 206.807 115.717  0.00  0.00     0.035 C 
ATOM      2  C7   11 d         -13.230 207.326 115.208  0.00  0.00     0.044 C 
ATOM      3  C8   11 d         -13.024 207.325 113.818  0.00  0.00     0.005 A 
ATOM      4  C9   11 d         -11.906 207.654 113.078  0.00  0.00     0.003 A 
ATOM      5  C10  11 d         -12.183 207.315 111.760  0.00  0.00     0.046 A 
ATOM      6  N3   11 d         -13.448 206.810 111.663  0.00  0.00    -0.346 N 
ATOM      7  C11  11 d         -13.988 206.871 112.923  0.00  0.00     0.046 A 
ATOM      8  C12  11 d         -15.260 206.531 113.409  0.00  0.00     0.033 C 
ATOM      9  C13  11 d         -15.487 206.520 114.794  0.00  0.00     0.032 C 
ATOM     10  C16  11 d         -11.201 207.472 110.766  0.00  0.00     0.030 A 
ATOM     11  C17  11 d          -9.951 208.013 111.128  0.00  0.00     0.002 A 
ATOM     12  C18  11 d          -9.690 208.379 112.466  0.00  0.00     0.001 A 
ATOM     13  C19  11 d         -10.670 208.193 113.463  0.00  0.00     0.014 A 
ENDROOT
BRANCH   1  14
ATOM     14  N2   11 d         -14.504 206.484 117.162  0.00  0.00    -0.327 N 
ATOM     15  C5   11 d         -14.050 205.274 117.791  0.00  0.00     0.226 C 
ATOM     16  O1   11 d         -13.570 204.319 117.088  0.00  0.00    -0.273 OA
ATOM     17  H6   11 d         -14.911 207.247 117.799  0.00  0.00     0.169 HD
BRANCH  15  18
ATOM     18  C4   11 d         -14.105 205.099 119.309  0.00  0.00     0.081 C 
ATOM     19  C3   11 d         -14.478 206.435 120.014  0.00  0.00     0.034 C 
ATOM     20  C2   11 d         -14.799 206.290 121.503  0.00  0.00     0.126 C 
ATOM     21  N1   11 d         -15.845 205.230 121.654  0.00  0.00    -0.352 N 
ATOM     22  C1   11 d         -17.130 205.518 122.233  0.00  0.00     0.215 C 
ATOM     23  C21  11 d         -15.442 203.883 121.150  0.00  0.00     0.126 C 
ATOM     24  O2   11 d         -17.412 206.716 122.594  0.00  0.00    -0.274 OA
ATOM     25  C22  11 d         -18.178 204.461 122.437  0.00  0.00     0.117 C 
ATOM     26  C20  11 d         -15.137 203.992 119.655  0.00  0.00     0.034 C 
ENDBRANCH  15  18
ENDBRANCH   1  14
BRANCH   6  27
ATOM     27  C14  11 d         -14.022 206.332 110.383  0.00  0.00     0.125 C 
ATOM     28  C15  11 d         -14.996 207.223 109.624  0.00  0.00     0.027 C 
ENDBRANCH   6  27
TORSDOF 3
ENDMDL
MODEL 5
REMARK VINA RESULT:      -9.3      4.489      6.703
REMARK  3 active torsions:
REMARK  status: ('A' for Active; 'I' for Inactive)
REMARK       I    between atoms: C1_1  and  N1_2 
REMARK    1  A    between atoms: C4_5  and  C5_6 
REMARK       I    between atoms: C5_6  and  N2_8 
REMARK    2  A    between atoms: N2_8  and  C6_9 
REMARK    3  A    between atoms: N3_14  and  C14_18 
ROOT
ATOM      1  C6   11 d         -11.464 206.760 115.961  0.00  0.00     0.035 C 
ATOM      2  C7   11 d         -11.063 207.282 114.706  0.00  0.00     0.044 C 
ATOM      3  C8   11 d         -11.875 207.047 113.585  0.00  0.00     0.005 A 
ATOM      4  C9   11 d         -11.665 207.333 112.251  0.00  0.00     0.003 A 
ATOM      5  C10  11 d         -12.702 206.737 111.544  0.00  0.00     0.046 A 
ATOM      6  N3   11 d         -13.557 206.113 112.406  0.00  0.00    -0.346 N 
ATOM      7  C11  11 d         -13.079 206.354 113.670  0.00  0.00     0.046 A 
ATOM      8  C12  11 d         -13.570 205.998 114.935  0.00  0.00     0.033 C 
ATOM      9  C13  11 d         -12.774 206.219 116.069  0.00  0.00     0.032 C 
ATOM     10  C16  11 d         -12.729 206.796 110.139  0.00  0.00     0.030 A 
ATOM     11  C17  11 d         -11.708 207.502 109.472  0.00  0.00     0.002 A 
ATOM     12  C18  11 d         -10.674 208.127 110.202  0.00  0.00     0.001 A 
ATOM     13  C19  11 d         -10.638 208.039 111.608  0.00  0.00     0.014 A 
ENDROOT
BRANCH   1  14
ATOM     14  N2   11 d         -10.449 206.702 117.038  0.00  0.00    -0.327 N 
ATOM     15  C5   11 d         -10.429 207.485 118.244  0.00  0.00     0.226 C 
ATOM     16  O1   11 d         -11.328 208.368 118.458  0.00  0.00    -0.273 OA
ATOM     17  H6   11 d          -9.661 205.984 116.905  0.00  0.00     0.169 HD
BRANCH  15  18
ATOM     18  C4   11 d          -9.354 207.272 119.311  0.00  0.00     0.081 C 
ATOM     19  C3   11 d          -9.531 205.897 120.017  0.00  0.00     0.034 C 
ATOM     20  C2   11 d          -8.358 205.498 120.916  0.00  0.00     0.126 C 
ATOM     21  N1   11 d          -7.100 205.592 120.110  0.00  0.00    -0.352 N 
ATOM     22  C1   11 d          -6.265 204.443 119.883  0.00  0.00     0.215 C 
ATOM     23  C21  11 d          -6.807 206.954 119.570  0.00  0.00     0.126 C 
ATOM     24  O2   11 d          -6.617 203.298 120.342  0.00  0.00    -0.274 OA
ATOM     25  C22  11 d          -4.975 204.522 119.117  0.00  0.00     0.117 C 
ATOM     26  C20  11 d          -7.954 207.369 118.647  0.00  0.00     0.034 C 
ENDBRANCH  15  18
ENDBRANCH   1  14
BRANCH   6  27
ATOM     27  C14  11 d         -14.748 205.361 111.947  0.00  0.00     0.125 C 
ATOM     28  C15  11 d         -16.106 206.052 111.931  0.00  0.00     0.027 C 
ENDBRANCH   6  27
TORSDOF 3
ENDMDL
MODEL 6
REMARK VINA RESULT:      -9.2      4.915      7.584
REMARK  3 active torsions:
REMARK  status: ('A' for Active; 'I' for Inactive)
REMARK       I    between atoms: C1_1  and  N1_2 
REMARK    1  A    between atoms: C4_5  and  C5_6 
REMARK       I    between atoms: C5_6  and  N2_8 
REMARK    2  A    between atoms: N2_8  and  C6_9 
REMARK    3  A    between atoms: N3_14  and  C14_18 
ROOT
ATOM      1  C6   11 d         -10.981 207.284 115.912  0.00  0.00     0.035 C 
ATOM      2  C7   11 d         -10.731 207.727 114.590  0.00  0.00     0.044 C 
ATOM      3  C8   11 d         -11.590 207.305 113.562  0.00  0.00     0.005 A 
ATOM      4  C9   11 d         -11.510 207.487 112.196  0.00  0.00     0.003 A 
ATOM      5  C10  11 d         -12.522 206.723 111.629  0.00  0.00     0.046 A 
ATOM      6  N3   11 d         -13.239 206.097 112.607  0.00  0.00    -0.346 N 
ATOM      7  C11  11 d         -12.701 206.502 113.803  0.00  0.00     0.046 A 
ATOM      8  C12  11 d         -13.057 206.216 115.129  0.00  0.00     0.033 C 
ATOM      9  C13  11 d         -12.211 206.622 116.172  0.00  0.00     0.032 C 
ATOM     10  C16  11 d         -12.656 206.649 110.231  0.00  0.00     0.030 A 
ATOM     11  C17  11 d         -11.770 207.392 109.425  0.00  0.00     0.002 A 
ATOM     12  C18  11 d         -10.762 208.186 110.013  0.00  0.00     0.001 A 
ATOM     13  C19  11 d         -10.616 208.233 111.414  0.00  0.00     0.014 A 
ENDROOT
BRANCH   1  14
ATOM     14  N2   11 d          -9.890 207.432 116.905  0.00  0.00    -0.327 N 
ATOM     15  C5   11 d          -9.992 208.019 118.213  0.00  0.00     0.226 C 
ATOM     16  O1   11 d         -11.099 208.519 118.614  0.00  0.00    -0.273 OA
ATOM     17  H6   11 d          -8.933 207.040 116.615  0.00  0.00     0.169 HD
BRANCH  15  18
ATOM     18  C4   11 d          -8.798 208.043 119.168  0.00  0.00     0.081 C 
ATOM     19  C3   11 d          -7.455 207.966 118.387  0.00  0.00     0.034 C 
ATOM     20  C2   11 d          -6.216 208.236 119.242  0.00  0.00     0.126 C 
ATOM     21  N1   11 d          -6.413 209.539 119.951  0.00  0.00    -0.352 N 
ATOM     22  C1   11 d          -5.521 210.650 119.749  0.00  0.00     0.215 C 
ATOM     23  C21  11 d          -7.600 209.580 120.858  0.00  0.00     0.126 C 
ATOM     24  O2   11 d          -4.553 210.545 118.913  0.00  0.00    -0.274 OA
ATOM     25  C22  11 d          -5.672 211.951 120.484  0.00  0.00     0.117 C 
ATOM     26  C20  11 d          -8.859 209.336 120.024  0.00  0.00     0.034 C 
ENDBRANCH  15  18
ENDBRANCH   1  14
BRANCH   6  27
ATOM     27  C14  11 d         -14.369 205.185 112.311  0.00  0.00     0.125 C 
ATOM     28  C15  11 d         -15.731 205.775 111.967  0.00  0.00     0.027 C 
ENDBRANCH   6  27
TORSDOF 3
ENDMDL
MODEL 7
REMARK VINA RESULT:      -9.1      1.686      3.561
REMARK  3 active torsions:
REMARK  status: ('A' for Active; 'I' for Inactive)
REMARK       I    between atoms: C1_1  and  N1_2 
REMARK    1  A    between atoms: C4_5  and  C5_6 
REMARK       I    between atoms: C5_6  and  N2_8 
REMARK    2  A    between atoms: N2_8  and  C6_9 
REMARK    3  A    between atoms: N3_14  and  C14_18 
ROOT
ATOM      1  C6   11 d         -14.232 206.288 115.524  0.00  0.00     0.035 C 
ATOM      2  C7   11 d         -13.077 207.108 115.561  0.00  0.00     0.044 C 
ATOM      3  C8   11 d         -12.409 207.391 114.358  0.00  0.00     0.005 A 
ATOM      4  C9   11 d         -11.220 208.051 114.127  0.00  0.00     0.003 A 
ATOM      5  C10  11 d         -10.933 207.902 112.777  0.00  0.00     0.046 A 
ATOM      6  N3   11 d         -11.924 207.192 112.163  0.00  0.00    -0.346 N 
ATOM      7  C11  11 d         -12.865 206.926 113.127  0.00  0.00     0.046 A 
ATOM      8  C12  11 d         -14.104 206.273 113.064  0.00  0.00     0.033 C 
ATOM      9  C13  11 d         -14.787 205.975 114.254  0.00  0.00     0.032 C 
ATOM     10  C16  11 d          -9.736 208.415 112.245  0.00  0.00     0.030 A 
ATOM     11  C17  11 d          -8.859 209.111 113.100  0.00  0.00     0.002 A 
ATOM     12  C18  11 d          -9.173 209.279 114.466  0.00  0.00     0.001 A 
ATOM     13  C19  11 d         -10.361 208.738 114.998  0.00  0.00     0.014 A 
ENDROOT
BRANCH   1  14
ATOM     14  N2   11 d         -14.706 205.711 116.804  0.00  0.00    -0.327 N 
ATOM     15  C5   11 d         -14.084 204.653 117.553  0.00  0.00     0.226 C 
ATOM     16  O1   11 d         -13.030 204.079 117.110  0.00  0.00    -0.273 OA
ATOM     17  H6   11 d         -15.596 206.147 117.216  0.00  0.00     0.169 HD
BRANCH  15  18
ATOM     18  C4   11 d         -14.644 204.199 118.901  0.00  0.00     0.081 C 
ATOM     19  C3   11 d         -14.455 205.299 119.985  0.00  0.00     0.034 C 
ATOM     20  C2   11 d         -15.207 205.030 121.290  0.00  0.00     0.126 C 
ATOM     21  N1   11 d         -16.642 204.769 120.956  0.00  0.00    -0.352 N 
ATOM     22  C1   11 d         -17.698 205.604 121.466  0.00  0.00     0.215 C 
ATOM     23  C21  11 d         -16.869 203.596 120.059  0.00  0.00     0.126 C 
ATOM     24  O2   11 d         -17.411 206.622 122.190  0.00  0.00    -0.274 OA
ATOM     25  C22  11 d         -19.148 205.334 121.182  0.00  0.00     0.117 C 
ATOM     26  C20  11 d         -16.147 203.849 118.735  0.00  0.00     0.034 C 
ENDBRANCH  15  18
ENDBRANCH   1  14
BRANCH   6  27
ATOM     27  C14  11 d         -11.888 206.846 110.723  0.00  0.00     0.125 C 
ATOM     28  C15  11 d         -13.088 207.177 109.846  0.00  0.00     0.027 C 
ENDBRANCH   6  27
TORSDOF 3
ENDMDL
MODEL 8
REMARK VINA RESULT:      -9.0      5.882      9.339
REMARK  3 active torsions:
REMARK  status: ('A' for Active; 'I' for Inactive)
REMARK       I    between atoms: C1_1  and  N1_2 
REMARK    1  A    between atoms: C4_5  and  C5_6 
REMARK       I    between atoms: C5_6  and  N2_8 
REMARK    2  A    between atoms: N2_8  and  C6_9 
REMARK    3  A    between atoms: N3_14  and  C14_18 
ROOT
ATOM      1  C6   11 d          -9.047 208.757 115.575  0.00  0.00     0.035 C 
ATOM      2  C7   11 d          -9.231 208.732 114.170  0.00  0.00     0.044 C 
ATOM      3  C8   11 d         -10.428 208.212 113.654  0.00  0.00     0.005 A 
ATOM      4  C9   11 d         -10.810 207.966 112.351  0.00  0.00     0.003 A 
ATOM      5  C10  11 d         -12.023 207.292 112.408  0.00  0.00     0.046 A 
ATOM      6  N3   11 d         -12.412 207.138 113.707  0.00  0.00    -0.346 N 
ATOM      7  C11  11 d         -11.457 207.757 114.474  0.00  0.00     0.046 A 
ATOM      8  C12  11 d         -11.357 207.950 115.860  0.00  0.00     0.033 C 
ATOM      9  C13  11 d         -10.167 208.463 116.399  0.00  0.00     0.032 C 
ATOM     10  C16  11 d         -12.640 206.841 111.227  0.00  0.00     0.030 A 
ATOM     11  C17  11 d         -12.023 207.120 109.991  0.00  0.00     0.002 A 
ATOM     12  C18  11 d         -10.804 207.830 109.944  0.00  0.00     0.001 A 
ATOM     13  C19  11 d         -10.177 208.254 111.133  0.00  0.00     0.014 A 
ENDROOT
BRANCH   1  14
ATOM     14  N2   11 d          -7.671 208.964 116.085  0.00  0.00    -0.327 N 
ATOM     15  C5   11 d          -6.704 209.907 115.592  0.00  0.00     0.226 C 
ATOM     16  O1   11 d          -6.978 210.650 114.587  0.00  0.00    -0.273 OA
ATOM     17  H6   11 d          -7.383 208.356 116.922  0.00  0.00     0.169 HD
BRANCH  15  18
ATOM     18  C4   11 d          -5.338 210.066 116.260  0.00  0.00     0.081 C 
ATOM     19  C3   11 d          -5.485 210.256 117.797  0.00  0.00     0.034 C 
ATOM     20  C2   11 d          -4.167 210.171 118.569  0.00  0.00     0.126 C 
ATOM     21  N1   11 d          -3.488 208.891 118.193  0.00  0.00    -0.352 N 
ATOM     22  C1   11 d          -3.191 207.881 119.174  0.00  0.00     0.215 C 
ATOM     23  C21  11 d          -3.166 208.761 116.741  0.00  0.00     0.126 C 
ATOM     24  O2   11 d          -3.548 208.053 120.394  0.00  0.00    -0.274 OA
ATOM     25  C22  11 d          -2.470 206.609 118.830  0.00  0.00     0.117 C 
ATOM     26  C20  11 d          -4.470 208.818 115.945  0.00  0.00     0.034 C 
ENDBRANCH  15  18
ENDBRANCH   1  14
BRANCH   6  27
ATOM     27  C14  11 d         -13.655 206.429 114.092  0.00  0.00     0.125 C 
ATOM     28  C15  11 d         -14.984 207.171 114.035  0.00  0.00     0.027 C 
ENDBRANCH   6  27
TORSDOF 3
ENDMDL
MODEL 9
REMARK VINA RESULT:      -9.0      4.715      9.444
REMARK  3 active torsions:
REMARK  status: ('A' for Active; 'I' for Inactive)
REMARK       I    between atoms: C1_1  and  N1_2 
REMARK    1  A    between atoms: C4_5  and  C5_6 
REMARK       I    between atoms: C5_6  and  N2_8 
REMARK    2  A    between atoms: N2_8  and  C6_9 
REMARK    3  A    between atoms: N3_14  and  C14_18 
ROOT
ATOM      1  C6   11 d         -10.400 208.445 114.970  0.00  0.00     0.035 C 
ATOM      2  C7   11 d         -10.999 208.051 113.748  0.00  0.00     0.044 C 
ATOM      3  C8   11 d         -12.186 207.303 113.785  0.00  0.00     0.005 A 
ATOM      4  C9   11 d         -12.899 206.702 112.768  0.00  0.00     0.003 A 
ATOM      5  C10  11 d         -13.898 205.947 113.370  0.00  0.00     0.046 A 
ATOM      6  N3   11 d         -13.837 206.085 114.726  0.00  0.00    -0.346 N 
ATOM      7  C11  11 d         -12.817 206.968 114.981  0.00  0.00     0.046 A 
ATOM      8  C12  11 d         -12.332 207.510 116.180  0.00  0.00     0.033 C 
ATOM      9  C13  11 d         -11.144 208.257 116.167  0.00  0.00     0.032 C 
ATOM     10  C16  11 d         -14.758 205.156 112.586  0.00  0.00     0.030 A 
ATOM     11  C17  11 d         -14.609 205.176 111.185  0.00  0.00     0.002 A 
ATOM     12  C18  11 d         -13.607 205.969 110.583  0.00  0.00     0.001 A 
ATOM     13  C19  11 d         -12.731 206.737 111.376  0.00  0.00     0.014 A 
ENDROOT
BRANCH   1  14
ATOM     14  N2   11 d          -8.993 208.908 114.930  0.00  0.00    -0.327 N 
ATOM     15  C5   11 d          -8.005 208.744 115.961  0.00  0.00     0.226 C 
ATOM     16  O1   11 d          -8.311 208.183 117.069  0.00  0.00    -0.273 OA
ATOM     17  H6   11 d          -8.684 209.398 114.026  0.00  0.00     0.169 HD
BRANCH  15  18
ATOM     18  C4   11 d          -6.562 209.210 115.759  0.00  0.00     0.081 C 
ATOM     19  C3   11 d          -5.555 208.072 116.089  0.00  0.00     0.034 C 
ATOM     20  C2   11 d          -4.112 208.372 115.675  0.00  0.00     0.126 C 
ATOM     21  N1   11 d          -4.113 208.761 114.230  0.00  0.00    -0.352 N 
ATOM     22  C1   11 d          -3.383 208.006 113.246  0.00  0.00     0.215 C 
ATOM     23  C21  11 d          -4.930 209.970 113.911  0.00  0.00     0.126 C 
ATOM     24  O2   11 d          -2.746 206.949 113.599  0.00  0.00    -0.274 OA
ATOM     25  C22  11 d          -3.331 208.403 111.799  0.00  0.00     0.117 C 
ATOM     26  C20  11 d          -6.385 209.689 114.293  0.00  0.00     0.034 C 
ENDBRANCH  15  18
ENDBRANCH   1  14
BRANCH   6  27
ATOM     27  C14  11 d         -14.757 205.375 115.645  0.00  0.00     0.125 C 
ATOM     28  C15  11 d         -14.182 204.600 116.824  0.00  0.00     0.027 C 
ENDBRANCH   6  27
TORSDOF 3
ENDMDL
MODEL 10
REMARK VINA RESULT:      -9.0      1.815      2.567
REMARK  3 active torsions:
REMARK  status: ('A' for Active; 'I' for Inactive)
REMARK       I    between atoms: C1_1  and  N1_2 
REMARK    1  A    between atoms: C4_5  and  C5_6 
REMARK       I    between atoms: C5_6  and  N2_8 
REMARK    2  A    between atoms: N2_8  and  C6_9 
REMARK    3  A    between atoms: N3_14  and  C14_18 
ROOT
ATOM      1  C6   11 d         -12.479 205.855 118.133  0.00  0.00     0.035 C 
ATOM      2  C7   11 d         -12.727 205.665 116.751  0.00  0.00     0.044 C 
ATOM      3  C8   11 d         -11.972 206.400 115.822  0.00  0.00     0.005 A 
ATOM      4  C9   11 d         -12.087 206.495 114.449  0.00  0.00     0.003 A 
ATOM      5  C10  11 d         -11.205 207.486 114.040  0.00  0.00     0.046 A 
ATOM      6  N3   11 d         -10.532 207.988 115.117  0.00  0.00    -0.346 N 
ATOM      7  C11  11 d         -10.963 207.277 116.210  0.00  0.00     0.046 A 
ATOM      8  C12  11 d         -10.590 207.329 117.561  0.00  0.00     0.033 C 
ATOM      9  C13  11 d         -11.333 206.607 118.508  0.00  0.00     0.032 C 
ATOM     10  C16  11 d         -11.140 207.864 112.687  0.00  0.00     0.030 A 
ATOM     11  C17  11 d         -11.958 207.192 111.757  0.00  0.00     0.002 A 
ATOM     12  C18  11 d         -12.831 206.166 112.180  0.00  0.00     0.001 A 
ATOM     13  C19  11 d         -12.910 205.813 113.542  0.00  0.00     0.014 A 
ENDROOT
BRANCH   1  14
ATOM     14  N2   11 d         -13.499 205.362 119.088  0.00  0.00    -0.327 N 
ATOM     15  C5   11 d         -14.305 206.160 119.973  0.00  0.00     0.226 C 
ATOM     16  O1   11 d         -14.153 207.430 120.019  0.00  0.00    -0.273 OA
ATOM     17  H6   11 d         -13.660 204.301 119.100  0.00  0.00     0.169 HD
BRANCH  15  18
ATOM     18  C4   11 d         -15.375 205.525 120.861  0.00  0.00     0.081 C 
ATOM     19  C3   11 d         -16.544 206.517 121.126  0.00  0.00     0.034 C 
ATOM     20  C2   11 d         -17.766 205.883 121.792  0.00  0.00     0.126 C 
ATOM     21  N1   11 d         -18.174 204.692 120.981  0.00  0.00    -0.352 N 
ATOM     22  C1   11 d         -19.473 204.608 120.368  0.00  0.00     0.215 C 
ATOM     23  C21  11 d         -17.128 203.632 120.864  0.00  0.00     0.126 C 
ATOM     24  O2   11 d         -20.294 205.587 120.478  0.00  0.00    -0.274 OA
ATOM     25  C22  11 d         -19.921 203.404 119.589  0.00  0.00     0.117 C 
ATOM     26  C20  11 d         -15.900 204.233 120.178  0.00  0.00     0.034 C 
ENDBRANCH  15  18
ENDBRANCH   1  14
BRANCH   6  27
ATOM     27  C14  11 d          -9.541 209.083 115.002  0.00  0.00     0.125 C 
ATOM     28  C15  11 d          -8.204 208.810 114.325  0.00  0.00     0.027 C 
ENDBRANCH   6  27
TORSDOF 3
ENDMDL
MODEL 11
REMARK VINA RESULT:      -8.9      4.644      5.958
REMARK  3 active torsions:
REMARK  status: ('A' for Active; 'I' for Inactive)
REMARK       I    between atoms: C1_1  and  N1_2 
REMARK    1  A    between atoms: C4_5  and  C5_6 
REMARK       I    between atoms: C5_6  and  N2_8 
REMARK    2  A    between atoms: N2_8  and  C6_9 
REMARK    3  A    between atoms: N3_14  and  C14_18 
ROOT
ATOM      1  C6   11 d         -11.320 206.934 116.060  0.00  0.00     0.035 C 
ATOM      2  C7   11 d         -10.885 207.406 114.796  0.00  0.00     0.044 C 
ATOM      3  C8   11 d         -11.715 207.214 113.680  0.00  0.00     0.005 A 
ATOM      4  C9   11 d         -11.489 207.463 112.342  0.00  0.00     0.003 A 
ATOM      5  C10  11 d         -12.568 206.935 111.646  0.00  0.00     0.046 A 
ATOM      6  N3   11 d         -13.465 206.389 112.519  0.00  0.00    -0.346 N 
ATOM      7  C11  11 d         -12.967 206.613 113.778  0.00  0.00     0.046 A 
ATOM      8  C12  11 d         -13.479 206.314 115.049  0.00  0.00     0.033 C 
ATOM      9  C13  11 d         -12.665 206.493 116.179  0.00  0.00     0.032 C 
ATOM     10  C16  11 d         -12.595 206.975 110.240  0.00  0.00     0.030 A 
ATOM     11  C17  11 d         -11.527 207.593 109.560  0.00  0.00     0.002 A 
ATOM     12  C18  11 d         -10.447 208.151 110.279  0.00  0.00     0.001 A 
ATOM     13  C19  11 d         -10.414 208.082 111.686  0.00  0.00     0.014 A 
ENDROOT
BRANCH   1  14
ATOM     14  N2   11 d         -10.308 206.817 117.136  0.00  0.00    -0.327 N 
ATOM     15  C5   11 d         -10.003 207.800 118.140  0.00  0.00     0.226 C 
ATOM     16  O1   11 d         -10.602 208.931 118.142  0.00  0.00    -0.273 OA
ATOM     17  H6   11 d          -9.766 205.891 117.174  0.00  0.00     0.169 HD
BRANCH  15  18
ATOM     18  C4   11 d          -8.980 207.520 119.241  0.00  0.00     0.081 C 
ATOM     19  C3   11 d          -8.771 208.770 120.143  0.00  0.00     0.034 C 
ATOM     20  C2   11 d          -7.959 208.499 121.411  0.00  0.00     0.126 C 
ATOM     21  N1   11 d          -8.588 207.348 122.131  0.00  0.00    -0.352 N 
ATOM     22  C1   11 d          -9.106 207.488 123.466  0.00  0.00     0.215 C 
ATOM     23  C21  11 d          -8.634 206.076 121.350  0.00  0.00     0.126 C 
ATOM     24  O2   11 d          -9.070 208.631 124.047  0.00  0.00    -0.274 OA
ATOM     25  C22  11 d          -9.699 206.336 124.226  0.00  0.00     0.117 C 
ATOM     26  C20  11 d          -9.462 206.310 120.085  0.00  0.00     0.034 C 
ENDBRANCH  15  18
ENDBRANCH   1  14
BRANCH   6  27
ATOM     27  C14  11 d         -14.710 205.720 112.073  0.00  0.00     0.125 C 
ATOM     28  C15  11 d         -14.624 204.351 111.412  0.00  0.00     0.027 C 
ENDBRANCH   6  27
TORSDOF 3
ENDMDL
MODEL 12
REMARK VINA RESULT:      -8.8      5.368      9.433
REMARK  3 active torsions:
REMARK  status: ('A' for Active; 'I' for Inactive)
REMARK       I    between atoms: C1_1  and  N1_2 
REMARK    1  A    between atoms: C4_5  and  C5_6 
REMARK       I    between atoms: C5_6  and  N2_8 
REMARK    2  A    between atoms: N2_8  and  C6_9 
REMARK    3  A    between atoms: N3_14  and  C14_18 
ROOT
ATOM      1  C6   11 d          -9.125 208.456 114.496  0.00  0.00     0.035 C 
ATOM      2  C7   11 d          -9.728 208.146 113.252  0.00  0.00     0.044 C 
ATOM      3  C8   11 d         -11.117 207.943 113.206  0.00  0.00     0.005 A 
ATOM      4  C9   11 d         -11.927 207.522 112.171  0.00  0.00     0.003 A 
ATOM      5  C10  11 d         -13.193 207.326 112.706  0.00  0.00     0.046 A 
ATOM      6  N3   11 d         -13.193 207.638 114.035  0.00  0.00    -0.346 N 
ATOM      7  C11  11 d         -11.926 208.075 114.331  0.00  0.00     0.046 A 
ATOM      8  C12  11 d         -11.363 208.562 115.520  0.00  0.00     0.033 C 
ATOM      9  C13  11 d          -9.976 208.767 115.591  0.00  0.00     0.032 C 
ATOM     10  C16  11 d         -14.234 206.827 111.901  0.00  0.00     0.030 A 
ATOM     11  C17  11 d         -13.973 206.569 110.541  0.00  0.00     0.002 A 
ATOM     12  C18  11 d         -12.689 206.797 110.002  0.00  0.00     0.001 A 
ATOM     13  C19  11 d         -11.644 207.270 110.821  0.00  0.00     0.014 A 
ENDROOT
BRANCH   1  14
ATOM     14  N2   11 d          -7.654 208.314 114.602  0.00  0.00    -0.327 N 
ATOM     15  C5   11 d          -6.697 209.375 114.769  0.00  0.00     0.226 C 
ATOM     16  O1   11 d          -7.081 210.594 114.801  0.00  0.00    -0.273 OA
ATOM     17  H6   11 d          -7.274 207.310 114.569  0.00  0.00     0.169 HD
BRANCH  15  18
ATOM     18  C4   11 d          -5.206 209.080 114.936  0.00  0.00     0.081 C 
ATOM     19  C3   11 d          -4.720 209.443 116.368  0.00  0.00     0.034 C 
ATOM     20  C2   11 d          -3.310 208.949 116.697  0.00  0.00     0.126 C 
ATOM     21  N1   11 d          -3.251 207.481 116.407  0.00  0.00    -0.352 N 
ATOM     22  C1   11 d          -2.953 206.522 117.437  0.00  0.00     0.215 C 
ATOM     23  C21  11 d          -3.534 207.116 114.987  0.00  0.00     0.126 C 
ATOM     24  O2   11 d          -2.771 206.919 118.644  0.00  0.00    -0.274 OA
ATOM     25  C22  11 d          -2.843 205.050 117.161  0.00  0.00     0.117 C 
ATOM     26  C20  11 d          -4.949 207.578 114.637  0.00  0.00     0.034 C 
ENDBRANCH  15  18
ENDBRANCH   1  14
BRANCH   6  27
ATOM     27  C14  11 d         -14.397 207.503 114.889  0.00  0.00     0.125 C 
ATOM     28  C15  11 d         -14.887 206.112 115.270  0.00  0.00     0.027 C 
ENDBRANCH   6  27
TORSDOF 3
ENDMDL
MODEL 13
REMARK VINA RESULT:      -8.8      6.501     12.012
REMARK  3 active torsions:
REMARK  status: ('A' for Active; 'I' for Inactive)
REMARK       I    between atoms: C1_1  and  N1_2 
REMARK    1  A    between atoms: C4_5  and  C5_6 
REMARK       I    between atoms: C5_6  and  N2_8 
REMARK    2  A    between atoms: N2_8  and  C6_9 
REMARK    3  A    between atoms: N3_14  and  C14_18 
ROOT
ATOM      1  C6   11 d          -7.446 209.343 113.549  0.00  0.00     0.035 C 
ATOM      2  C7   11 d          -8.281 209.028 112.448  0.00  0.00     0.044 C 
ATOM      3  C8   11 d          -9.568 208.525 112.697  0.00  0.00     0.005 A 
ATOM      4  C9   11 d         -10.523 208.036 111.829  0.00  0.00     0.003 A 
ATOM      5  C10  11 d         -11.544 207.510 112.609  0.00  0.00     0.046 A 
ATOM      6  N3   11 d         -11.259 207.683 113.933  0.00  0.00    -0.346 N 
ATOM      7  C11  11 d         -10.066 208.362 113.987  0.00  0.00     0.046 A 
ATOM      8  C12  11 d          -9.318 208.843 115.071  0.00  0.00     0.033 C 
ATOM      9  C13  11 d          -8.027 209.346 114.846  0.00  0.00     0.032 C 
ATOM     10  C16  11 d         -12.642 206.872 112.004  0.00  0.00     0.030 A 
ATOM     11  C17  11 d         -12.701 206.813 110.598  0.00  0.00     0.002 A 
ATOM     12  C18  11 d         -11.670 207.375 109.814  0.00  0.00     0.001 A 
ATOM     13  C19  11 d         -10.558 207.988 110.428  0.00  0.00     0.014 A 
ENDROOT
BRANCH   1  14
ATOM     14  N2   11 d          -5.999 209.524 113.285  0.00  0.00    -0.327 N 
ATOM     15  C5   11 d          -4.933 208.657 113.709  0.00  0.00     0.226 C 
ATOM     16  O1   11 d          -5.182 207.624 114.422  0.00  0.00    -0.273 OA
ATOM     17  H6   11 d          -5.731 210.383 112.700  0.00  0.00     0.169 HD
BRANCH  15  18
ATOM     18  C4   11 d          -3.483 208.926 113.305  0.00  0.00     0.081 C 
ATOM     19  C3   11 d          -2.864 207.694 112.585  0.00  0.00     0.034 C 
ATOM     20  C2   11 d          -1.509 207.966 111.929  0.00  0.00     0.126 C 
ATOM     21  N1   11 d          -1.653 209.161 111.039  0.00  0.00    -0.352 N 
ATOM     22  C1   11 d          -1.411 209.078 109.623  0.00  0.00     0.215 C 
ATOM     23  C21  11 d          -2.070 210.412 111.740  0.00  0.00     0.126 C 
ATOM     24  O2   11 d          -1.105 207.951 109.094  0.00  0.00    -0.274 OA
ATOM     25  C22  11 d          -1.505 210.273 108.718  0.00  0.00     0.117 C 
ATOM     26  C20  11 d          -3.436 210.177 112.387  0.00  0.00     0.034 C 
ENDBRANCH  15  18
ENDBRANCH   1  14
BRANCH   6  27
ATOM     27  C14  11 d         -12.148 207.198 115.014  0.00  0.00     0.125 C 
ATOM     28  C15  11 d         -11.972 205.781 115.545  0.00  0.00     0.027 C 
ENDBRANCH   6  27
TORSDOF 3
ENDMDL
MODEL 14
REMARK VINA RESULT:      -8.8      2.260      4.145
REMARK  3 active torsions:
REMARK  status: ('A' for Active; 'I' for Inactive)
REMARK       I    between atoms: C1_1  and  N1_2 
REMARK    1  A    between atoms: C4_5  and  C5_6 
REMARK       I    between atoms: C5_6  and  N2_8 
REMARK    2  A    between atoms: N2_8  and  C6_9 
REMARK    3  A    between atoms: N3_14  and  C14_18 
ROOT
ATOM      1  C6   11 d         -13.920 205.710 116.290  0.00  0.00     0.035 C 
ATOM      2  C7   11 d         -12.846 206.449 115.734  0.00  0.00     0.044 C 
ATOM      3  C8   11 d         -12.810 206.648 114.345  0.00  0.00     0.005 A 
ATOM      4  C9   11 d         -11.838 207.217 113.546  0.00  0.00     0.003 A 
ATOM      5  C10  11 d         -12.228 207.008 112.230  0.00  0.00     0.046 A 
ATOM      6  N3   11 d         -13.424 206.351 112.194  0.00  0.00    -0.346 N 
ATOM      7  C11  11 d         -13.812 206.180 113.500  0.00  0.00     0.046 A 
ATOM      8  C12  11 d         -14.965 205.613 114.061  0.00  0.00     0.033 C 
ATOM      9  C13  11 d         -15.022 205.399 115.447  0.00  0.00     0.032 C 
ATOM     10  C16  11 d         -11.399 207.420 111.171  0.00  0.00     0.030 A 
ATOM     11  C17  11 d         -10.190 208.078 111.474  0.00  0.00     0.002 A 
ATOM     12  C18  11 d          -9.817 208.308 112.815  0.00  0.00     0.001 A 
ATOM     13  C19  11 d         -10.640 207.868 113.872  0.00  0.00     0.014 A 
ENDROOT
BRANCH   1  14
ATOM     14  N2   11 d         -13.764 205.206 117.675  0.00  0.00    -0.327 N 
ATOM     15  C5   11 d         -13.953 205.954 118.888  0.00  0.00     0.226 C 
ATOM     16  O1   11 d         -14.250 207.198 118.843  0.00  0.00    -0.273 OA
ATOM     17  H6   11 d         -13.503 204.169 117.772  0.00  0.00     0.169 HD
BRANCH  15  18
ATOM     18  C4   11 d         -13.828 205.288 120.259  0.00  0.00     0.081 C 
ATOM     19  C3   11 d         -12.367 205.360 120.785  0.00  0.00     0.034 C 
ATOM     20  C2   11 d         -12.206 204.944 122.249  0.00  0.00     0.126 C 
ATOM     21  N1   11 d         -13.170 205.742 123.069  0.00  0.00    -0.352 N 
ATOM     22  C1   11 d         -12.720 206.624 124.114  0.00  0.00     0.215 C 
ATOM     23  C21  11 d         -14.605 205.550 122.705  0.00  0.00     0.126 C 
ATOM     24  O2   11 d         -11.463 206.768 124.328  0.00  0.00    -0.274 OA
ATOM     25  C22  11 d         -13.670 207.400 124.980  0.00  0.00     0.117 C 
ATOM     26  C20  11 d         -14.801 205.981 121.250  0.00  0.00     0.034 C 
ENDBRANCH  15  18
ENDBRANCH   1  14
BRANCH   6  27
ATOM     27  C14  11 d         -14.085 205.960 110.927  0.00  0.00     0.125 C 
ATOM     28  C15  11 d         -15.309 206.735 110.455  0.00  0.00     0.027 C 
ENDBRANCH   6  27
TORSDOF 3
ENDMDL
MODEL 15
REMARK VINA RESULT:      -8.7      2.465      4.325
REMARK  3 active torsions:
REMARK  status: ('A' for Active; 'I' for Inactive)
REMARK       I    between atoms: C1_1  and  N1_2 
REMARK    1  A    between atoms: C4_5  and  C5_6 
REMARK       I    between atoms: C5_6  and  N2_8 
REMARK    2  A    between atoms: N2_8  and  C6_9 
REMARK    3  A    between atoms: N3_14  and  C14_18 
ROOT
ATOM      1  C6   11 d         -14.144 207.016 116.406  0.00  0.00     0.035 C 
ATOM      2  C7   11 d         -12.950 207.736 116.154  0.00  0.00     0.044 C 
ATOM      3  C8   11 d         -12.418 207.730 114.854  0.00  0.00     0.005 A 
ATOM      4  C9   11 d         -11.230 208.240 114.370  0.00  0.00     0.003 A 
ATOM      5  C10  11 d         -11.118 207.813 113.053  0.00  0.00     0.046 A 
ATOM      6  N3   11 d         -12.213 207.077 112.704  0.00  0.00    -0.346 N 
ATOM      7  C11  11 d         -13.044 207.075 113.798  0.00  0.00     0.046 A 
ATOM      8  C12  11 d         -14.315 206.519 114.000  0.00  0.00     0.033 C 
ATOM      9  C13  11 d         -14.864 206.508 115.291  0.00  0.00     0.032 C 
ATOM     10  C16  11 d          -9.967 208.120 112.304  0.00  0.00     0.030 A 
ATOM     11  C17  11 d          -8.956 208.897 112.904  0.00  0.00     0.002 A 
ATOM     12  C18  11 d          -9.094 209.348 114.234  0.00  0.00     0.001 A 
ATOM     13  C19  11 d         -10.237 209.013 114.988  0.00  0.00     0.014 A 
ENDROOT
BRANCH   1  14
ATOM     14  N2   11 d         -14.491 206.733 117.819  0.00  0.00    -0.327 N 
ATOM     15  C5   11 d         -14.394 205.466 118.491  0.00  0.00     0.226 C 
ATOM     16  O1   11 d         -14.011 204.423 117.856  0.00  0.00    -0.273 OA
ATOM     17  H6   11 d         -14.831 207.572 118.397  0.00  0.00     0.169 HD
BRANCH  15  18
ATOM     18  C4   11 d         -14.720 205.330 119.979  0.00  0.00     0.081 C 
ATOM     19  C3   11 d         -15.051 203.855 120.347  0.00  0.00     0.034 C 
ATOM     20  C2   11 d         -15.142 203.589 121.851  0.00  0.00     0.126 C 
ATOM     21  N1   11 d         -13.885 204.091 122.490  0.00  0.00    -0.352 N 
ATOM     22  C1   11 d         -13.002 203.210 123.208  0.00  0.00     0.215 C 
ATOM     23  C21  11 d         -13.635 205.552 122.308  0.00  0.00     0.126 C 
ATOM     24  O2   11 d         -13.267 201.957 123.273  0.00  0.00    -0.274 OA
ATOM     25  C22  11 d         -11.760 203.699 123.896  0.00  0.00     0.117 C 
ATOM     26  C20  11 d         -13.516 205.844 120.812  0.00  0.00     0.034 C 
ENDBRANCH  15  18
ENDBRANCH   1  14
BRANCH   6  27
ATOM     27  C14  11 d         -12.369 206.459 111.367  0.00  0.00     0.125 C 
ATOM     28  C15  11 d         -13.535 206.880 110.482  0.00  0.00     0.027 C 
ENDBRANCH   6  27
TORSDOF 3
ENDMDL
MODEL 16
REMARK VINA RESULT:      -8.7      5.759      8.532
REMARK  3 active torsions:
REMARK  status: ('A' for Active; 'I' for Inactive)
REMARK       I    between atoms: C1_1  and  N1_2 
REMARK    1  A    between atoms: C4_5  and  C5_6 
REMARK       I    between atoms: C5_6  and  N2_8 
REMARK    2  A    between atoms: N2_8  and  C6_9 
REMARK    3  A    between atoms: N3_14  and  C14_18 
ROOT
ATOM      1  C6   11 d          -9.813 208.356 116.416  0.00  0.00     0.035 C 
ATOM      2  C7   11 d          -9.700 208.508 115.012  0.00  0.00     0.044 C 
ATOM      3  C8   11 d         -10.735 208.027 114.194  0.00  0.00     0.005 A 
ATOM      4  C9   11 d         -10.824 207.942 112.819  0.00  0.00     0.003 A 
ATOM      5  C10  11 d         -11.985 207.234 112.536  0.00  0.00     0.046 A 
ATOM      6  N3   11 d         -12.627 206.904 113.694  0.00  0.00    -0.346 N 
ATOM      7  C11  11 d         -11.886 207.444 114.716  0.00  0.00     0.046 A 
ATOM      8  C12  11 d         -12.086 207.459 116.104  0.00  0.00     0.033 C 
ATOM      9  C13  11 d         -11.063 207.929 116.942  0.00  0.00     0.032 C 
ATOM     10  C16  11 d         -12.319 206.923 111.205  0.00  0.00     0.030 A 
ATOM     11  C17  11 d         -11.475 207.375 110.172  0.00  0.00     0.002 A 
ATOM     12  C18  11 d         -10.311 208.117 110.470  0.00  0.00     0.001 A 
ATOM     13  C19  11 d          -9.968 208.401 111.808  0.00  0.00     0.014 A 
ENDROOT
BRANCH   1  14
ATOM     14  N2   11 d          -8.586 208.531 117.229  0.00  0.00    -0.327 N 
ATOM     15  C5   11 d          -7.238 208.626 116.739  0.00  0.00     0.226 C 
ATOM     16  O1   11 d          -6.994 208.519 115.488  0.00  0.00    -0.273 OA
ATOM     17  H6   11 d          -8.731 208.614 118.289  0.00  0.00     0.169 HD
BRANCH  15  18
ATOM     18  C4   11 d          -6.065 208.879 117.687  0.00  0.00     0.081 C 
ATOM     19  C3   11 d          -5.558 210.345 117.573  0.00  0.00     0.034 C 
ATOM     20  C2   11 d          -4.559 210.750 118.659  0.00  0.00     0.126 C 
ATOM     21  N1   11 d          -5.166 210.436 119.990  0.00  0.00    -0.352 N 
ATOM     22  C1   11 d          -5.409 211.464 120.968  0.00  0.00     0.215 C 
ATOM     23  C21  11 d          -5.495 208.994 120.200  0.00  0.00     0.126 C 
ATOM     24  O2   11 d          -5.142 212.686 120.686  0.00  0.00    -0.274 OA
ATOM     25  C22  11 d          -5.974 211.167 122.327  0.00  0.00     0.117 C 
ATOM     26  C20  11 d          -6.512 208.567 119.141  0.00  0.00     0.034 C 
ENDBRANCH  15  18
ENDBRANCH   1  14
BRANCH   6  27
ATOM     27  C14  11 d         -13.883 206.119 113.717  0.00  0.00     0.125 C 
ATOM     28  C15  11 d         -15.199 206.826 114.017  0.00  0.00     0.027 C 
ENDBRANCH   6  27
TORSDOF 3
ENDMDL
MODEL 17
REMARK VINA RESULT:      -8.4      5.735      9.442
REMARK  3 active torsions:
REMARK  status: ('A' for Active; 'I' for Inactive)
REMARK       I    between atoms: C1_1  and  N1_2 
REMARK    1  A    between atoms: C4_5  and  C5_6 
REMARK       I    between atoms: C5_6  and  N2_8 
REMARK    2  A    between atoms: N2_8  and  C6_9 
REMARK    3  A    between atoms: N3_14  and  C14_18 
ROOT
ATOM      1  C6   11 d          -9.276 208.727 115.777  0.00  0.00     0.035 C 
ATOM      2  C7   11 d          -9.368 208.724 114.363  0.00  0.00     0.044 C 
ATOM      3  C8   11 d         -10.520 208.195 113.760  0.00  0.00     0.005 A 
ATOM      4  C9   11 d         -10.812 207.966 112.431  0.00  0.00     0.003 A 
ATOM      5  C10  11 d         -12.014 207.273 112.397  0.00  0.00     0.046 A 
ATOM      6  N3   11 d         -12.485 207.089 113.665  0.00  0.00    -0.346 N 
ATOM      7  C11  11 d         -11.593 207.710 114.504  0.00  0.00     0.046 A 
ATOM      8  C12  11 d         -11.586 207.879 115.896  0.00  0.00     0.033 C 
ATOM      9  C13  11 d         -10.443 208.401 116.521  0.00  0.00     0.032 C 
ATOM     10  C16  11 d         -12.546 206.833 111.171  0.00  0.00     0.030 A 
ATOM     11  C17  11 d         -11.854 207.144 109.983  0.00  0.00     0.002 A 
ATOM     12  C18  11 d         -10.646 207.873 110.028  0.00  0.00     0.001 A 
ATOM     13  C19  11 d         -10.105 208.286 111.262  0.00  0.00     0.014 A 
ENDROOT
BRANCH   1  14
ATOM     14  N2   11 d          -7.941 208.946 116.380  0.00  0.00    -0.327 N 
ATOM     15  C5   11 d          -7.313 208.142 117.394  0.00  0.00     0.226 C 
ATOM     16  O1   11 d          -7.929 207.142 117.901  0.00  0.00    -0.273 OA
ATOM     17  H6   11 d          -7.383 209.781 116.000  0.00  0.00     0.169 HD
BRANCH  15  18
ATOM     18  C4   11 d          -5.894 208.442 117.879  0.00  0.00     0.081 C 
ATOM     19  C3   11 d          -5.234 207.175 118.494  0.00  0.00     0.034 C 
ATOM     20  C2   11 d          -3.736 207.321 118.772  0.00  0.00     0.126 C 
ATOM     21  N1   11 d          -3.071 207.782 117.513  0.00  0.00    -0.352 N 
ATOM     22  C1   11 d          -2.051 206.998 116.869  0.00  0.00     0.215 C 
ATOM     23  C21  11 d          -3.560 209.096 116.997  0.00  0.00     0.126 C 
ATOM     24  O2   11 d          -1.726 205.856 117.353  0.00  0.00    -0.274 OA
ATOM     25  C22  11 d          -1.337 207.462 115.631  0.00  0.00     0.117 C 
ATOM     26  C20  11 d          -5.053 208.973 116.687  0.00  0.00     0.034 C 
ENDBRANCH  15  18
ENDBRANCH   1  14
BRANCH   6  27
ATOM     27  C14  11 d         -13.739 206.354 113.955  0.00  0.00     0.125 C 
ATOM     28  C15  11 d         -15.053 207.122 114.026  0.00  0.00     0.027 C 
ENDBRANCH   6  27
TORSDOF 3
ENDMDL
MODEL 18
REMARK VINA RESULT:      -8.2      5.251      7.834
REMARK  3 active torsions:
REMARK  status: ('A' for Active; 'I' for Inactive)
REMARK       I    between atoms: C1_1  and  N1_2 
REMARK    1  A    between atoms: C4_5  and  C5_6 
REMARK       I    between atoms: C5_6  and  N2_8 
REMARK    2  A    between atoms: N2_8  and  C6_9 
REMARK    3  A    between atoms: N3_14  and  C14_18 
ROOT
ATOM      1  C6   11 d         -10.631 208.440 116.663  0.00  0.00     0.035 C 
ATOM      2  C7   11 d         -10.299 208.619 115.297  0.00  0.00     0.044 C 
ATOM      3  C8   11 d         -11.124 208.042 114.318  0.00  0.00     0.005 A 
ATOM      4  C9   11 d         -10.970 207.962 112.949  0.00  0.00     0.003 A 
ATOM      5  C10  11 d         -11.985 207.140 112.478  0.00  0.00     0.046 A 
ATOM      6  N3   11 d         -12.775 206.731 113.513  0.00  0.00    -0.346 N 
ATOM      7  C11  11 d         -12.279 207.335 114.642  0.00  0.00     0.046 A 
ATOM      8  C12  11 d         -12.712 207.313 115.976  0.00  0.00     0.033 C 
ATOM      9  C13  11 d         -11.900 207.879 116.971  0.00  0.00     0.032 C 
ATOM     10  C16  11 d         -12.054 206.811 111.112  0.00  0.00     0.030 A 
ATOM     11  C17  11 d         -11.100 207.361 110.233  0.00  0.00     0.002 A 
ATOM     12  C18  11 d         -10.088 208.217 110.720  0.00  0.00     0.001 A 
ATOM     13  C19  11 d         -10.008 208.520 112.094  0.00  0.00     0.014 A 
ENDROOT
BRANCH   1  14
ATOM     14  N2   11 d          -9.585 208.734 117.670  0.00  0.00    -0.327 N 
ATOM     15  C5   11 d          -9.350 208.023 118.898  0.00  0.00     0.226 C 
ATOM     16  O1   11 d         -10.108 207.051 119.238  0.00  0.00    -0.273 OA
ATOM     17  H6   11 d          -8.927 209.550 117.441  0.00  0.00     0.169 HD
BRANCH  15  18
ATOM     18  C4   11 d          -8.185 208.390 119.817  0.00  0.00     0.081 C 
ATOM     19  C3   11 d          -7.862 207.231 120.802  0.00  0.00     0.034 C 
ATOM     20  C2   11 d          -6.557 207.414 121.581  0.00  0.00     0.126 C 
ATOM     21  N1   11 d          -5.460 207.677 120.598  0.00  0.00    -0.352 N 
ATOM     22  C1   11 d          -4.324 206.802 120.485  0.00  0.00     0.215 C 
ATOM     23  C21  11 d          -5.656 208.898 119.759  0.00  0.00     0.126 C 
ATOM     24  O2   11 d          -4.260 205.746 121.211  0.00  0.00    -0.274 OA
ATOM     25  C22  11 d          -3.189 207.070 119.539  0.00  0.00     0.117 C 
ATOM     26  C20  11 d          -6.943 208.732 118.949  0.00  0.00     0.034 C 
ENDBRANCH  15  18
ENDBRANCH   1  14
BRANCH   6  27
ATOM     27  C14  11 d         -13.928 205.819 113.328  0.00  0.00     0.125 C 
ATOM     28  C15  11 d         -15.337 206.397 113.287  0.00  0.00     0.027 C 
ENDBRANCH   6  27
TORSDOF 3
ENDMDL
MODEL 19
REMARK VINA RESULT:      -7.5      2.395      9.688
REMARK  3 active torsions:
REMARK  status: ('A' for Active; 'I' for Inactive)
REMARK       I    between atoms: C1_1  and  N1_2 
REMARK    1  A    between atoms: C4_5  and  C5_6 
REMARK       I    between atoms: C5_6  and  N2_8 
REMARK    2  A    between atoms: N2_8  and  C6_9 
REMARK    3  A    between atoms: N3_14  and  C14_18 
ROOT
ATOM      1  C6   11 d         -15.113 205.434 120.441  0.00  0.00     0.035 C 
ATOM      2  C7   11 d         -16.439 205.115 120.825  0.00  0.00     0.044 C 
ATOM      3  C8   11 d         -16.772 205.135 122.190  0.00  0.00     0.005 A 
ATOM      4  C9   11 d         -17.932 204.760 122.835  0.00  0.00     0.003 A 
ATOM      5  C10  11 d         -17.672 204.821 124.198  0.00  0.00     0.046 A 
ATOM      6  N3   11 d         -16.393 205.247 124.412  0.00  0.00    -0.346 N 
ATOM      7  C11  11 d         -15.855 205.497 123.173  0.00  0.00     0.046 A 
ATOM      8  C12  11 d         -14.601 205.991 122.786  0.00  0.00     0.033 C 
ATOM      9  C13  11 d         -14.245 205.975 121.428  0.00  0.00     0.032 C 
ATOM     10  C16  11 d         -18.654 204.427 125.125  0.00  0.00     0.030 A 
ATOM     11  C17  11 d         -19.911 204.009 124.645  0.00  0.00     0.002 A 
ATOM     12  C18  11 d         -20.173 203.977 123.258  0.00  0.00     0.001 A 
ATOM     13  C19  11 d         -19.175 204.346 122.333  0.00  0.00     0.014 A 
ENDROOT
BRANCH   1  14
ATOM     14  N2   11 d         -14.686 205.065 119.071  0.00  0.00    -0.327 N 
ATOM     15  C5   11 d         -14.024 205.915 118.119  0.00  0.00     0.226 C 
ATOM     16  O1   11 d         -13.780 207.139 118.403  0.00  0.00    -0.273 OA
ATOM     17  H6   11 d         -14.878 204.051 118.775  0.00  0.00     0.169 HD
BRANCH  15  18
ATOM     18  C4   11 d         -13.574 205.383 116.758  0.00  0.00     0.081 C 
ATOM     19  C3   11 d         -14.593 205.758 115.645  0.00  0.00     0.034 C 
ATOM     20  C2   11 d         -14.098 205.485 114.223  0.00  0.00     0.126 C 
ATOM     21  N1   11 d         -12.768 206.150 114.056  0.00  0.00    -0.352 N 
ATOM     22  C1   11 d         -12.556 207.172 113.065  0.00  0.00     0.215 C 
ATOM     23  C21  11 d         -11.711 205.673 114.997  0.00  0.00     0.126 C 
ATOM     24  O2   11 d         -13.534 207.558 112.330  0.00  0.00    -0.274 OA
ATOM     25  C22  11 d         -11.219 207.821 112.848  0.00  0.00     0.117 C 
ATOM     26  C20  11 d         -12.169 205.956 116.429  0.00  0.00     0.034 C 
ENDBRANCH  15  18
ENDBRANCH   1  14
BRANCH   6  27
ATOM     27  C14  11 d         -15.812 205.384 125.767  0.00  0.00     0.125 C 
ATOM     28  C15  11 d         -15.689 206.770 126.388  0.00  0.00     0.027 C 
ENDBRANCH   6  27
TORSDOF 3
ENDMDL
MODEL 20
REMARK VINA RESULT:      -7.5      2.891      9.985
REMARK  3 active torsions:
REMARK  status: ('A' for Active; 'I' for Inactive)
REMARK       I    between atoms: C1_1  and  N1_2 
REMARK    1  A    between atoms: C4_5  and  C5_6 
REMARK       I    between atoms: C5_6  and  N2_8 
REMARK    2  A    between atoms: N2_8  and  C6_9 
REMARK    3  A    between atoms: N3_14  and  C14_18 
ROOT
ATOM      1  C6   11 d         -17.324 205.823 121.524  0.00  0.00     0.035 C 
ATOM      2  C7   11 d         -18.253 204.767 121.349  0.00  0.00     0.044 C 
ATOM      3  C8   11 d         -19.033 204.363 122.445  0.00  0.00     0.005 A 
ATOM      4  C9   11 d         -19.910 203.307 122.580  0.00  0.00     0.003 A 
ATOM      5  C10  11 d         -20.282 203.261 123.917  0.00  0.00     0.046 A 
ATOM      6  N3   11 d         -19.680 204.275 124.605  0.00  0.00    -0.346 N 
ATOM      7  C11  11 d         -18.955 204.991 123.685  0.00  0.00     0.046 A 
ATOM      8  C12  11 d         -18.176 206.151 123.812  0.00  0.00     0.033 C 
ATOM      9  C13  11 d         -17.384 206.570 122.732  0.00  0.00     0.032 C 
ATOM     10  C16  11 d         -21.128 202.239 124.384  0.00  0.00     0.030 A 
ATOM     11  C17  11 d         -21.616 201.291 123.463  0.00  0.00     0.002 A 
ATOM     12  C18  11 d         -21.252 201.362 122.101  0.00  0.00     0.001 A 
ATOM     13  C19  11 d         -20.382 202.373 121.646  0.00  0.00     0.014 A 
ENDROOT
BRANCH   1  14
ATOM     14  N2   11 d         -16.275 205.994 120.492  0.00  0.00    -0.327 N 
ATOM     15  C5   11 d         -15.008 205.317 120.433  0.00  0.00     0.226 C 
ATOM     16  O1   11 d         -14.669 204.497 121.354  0.00  0.00    -0.273 OA
ATOM     17  H6   11 d         -16.502 206.683 119.700  0.00  0.00     0.169 HD
BRANCH  15  18
ATOM     18  C4   11 d         -14.044 205.538 119.267  0.00  0.00     0.081 C 
ATOM     19  C3   11 d         -14.486 204.729 118.014  0.00  0.00     0.034 C 
ATOM     20  C2   11 d         -13.725 205.087 116.736  0.00  0.00     0.126 C 
ATOM     21  N1   11 d         -13.807 206.569 116.543  0.00  0.00    -0.352 N 
ATOM     22  C1   11 d         -14.419 207.143 115.374  0.00  0.00     0.215 C 
ATOM     23  C21  11 d         -13.218 207.374 117.654  0.00  0.00     0.126 C 
ATOM     24  O2   11 d         -14.945 206.378 114.490  0.00  0.00    -0.274 OA
ATOM     25  C22  11 d         -14.472 208.625 115.137  0.00  0.00     0.117 C 
ATOM     26  C20  11 d         -13.978 207.055 118.943  0.00  0.00     0.034 C 
ENDBRANCH  15  18
ENDBRANCH   1  14
BRANCH   6  27
ATOM     27  C14  11 d         -19.860 204.471 126.063  0.00  0.00     0.125 C 
ATOM     28  C15  11 d         -18.894 203.800 127.030  0.00  0.00     0.027 C 
ENDBRANCH   6  27
TORSDOF 3
ENDMDL
