REMARK  5 active torsions:
REMARK  status: ('A' for Active; 'I' for Inactive)
REMARK    1  A    between atoms: C12_14  and  N3_16 
REMARK       I    between atoms: N3_16  and  C13_17 
REMARK    2  A    between atoms: C13_17  and  C14_19 
REMARK    3  A    between atoms: C14_19  and  N4_20 
REMARK    4  A    between atoms: N4_20  and  C15_21 
REMARK    5  A    between atoms: N4_20  and  C17_23 
ROOT
ATOM      1  C1   11 d           0.478  -2.240  -4.234  0.00  0.00     0.109 A 
ATOM      2  C2   11 d           0.654  -3.197  -3.063  0.00  0.00     0.014 C 
ATOM      3  C3   11 d           1.275  -2.451  -1.841  0.00  0.00     0.021 C 
ATOM      4  C4   11 d           1.407  -3.401  -0.627  0.00  0.00    -0.013 C 
ATOM      5  C5   11 d           2.323  -4.588  -1.000  0.00  0.00     0.009 C 
ATOM      6  C6   11 d           1.712  -5.357  -2.193  0.00  0.00    -0.013 C 
ATOM      7  C7   11 d           1.582  -4.406  -3.407  0.00  0.00     0.021 C 
ATOM      8  C8   11 d           0.311  -5.886  -1.804  0.00  0.00     0.009 C 
ATOM      9  C9   11 d          -0.608  -4.699  -1.431  0.00  0.00    -0.013 C 
ATOM     10  C10  11 d          -0.740  -3.746  -2.645  0.00  0.00     0.021 C 
ATOM     11  C11  11 d           0.006  -3.930  -0.238  0.00  0.00     0.009 C 
ATOM     12  N1   11 d           0.417  -0.887  -4.147  0.00  0.00    -0.144 NA
ATOM     13  N2   11 d           0.332  -0.321  -5.327  0.00  0.00    -0.123 NA
ATOM     14  C12  11 d           0.360  -1.241  -6.317  0.00  0.00     0.196 A 
ATOM     15  S1   11 d           0.475  -2.593  -5.693  0.00  0.00    -0.032 SA
ENDROOT
BRANCH  14  16
ATOM     16  N3   11 d           0.299  -0.992  -7.758  0.00  0.00    -0.303 N 
ATOM     17  C13  11 d           0.190   0.322  -8.293  0.00  0.00     0.249 C 
ATOM     18  O1   11 d           0.142   1.344  -7.525  0.00  0.00    -0.271 OA
ATOM     19  H16  11 d           0.340  -1.843  -8.414  0.00  0.00     0.171 HD
BRANCH  17  20
ATOM     20  C14  11 d           0.141   0.537  -9.782  0.00  0.00     0.337 C 
BRANCH  20  21
ATOM     21  N4   11 d           0.542   1.926 -10.220  0.00  0.00    -0.064 N 
ATOM     22  H19  11 d          -0.050   2.622  -9.648  0.00  0.00     0.280 HD
BRANCH  21  23
ATOM     23  C15  11 d           0.158   2.119 -11.668  0.00  0.00     0.231 C 
ATOM     24  C16  11 d           0.295   3.552 -12.191  0.00  0.00     0.034 C 
ENDBRANCH  21  23
BRANCH  21  25
ATOM     25  C17  11 d           2.016   2.187  -9.965  0.00  0.00     0.231 C 
ATOM     26  C18  11 d           2.322   3.588  -9.421  0.00  0.00     0.034 C 
ENDBRANCH  21  25
ENDBRANCH  20  21
ENDBRANCH  17  20
ENDBRANCH  14  16
TORSDOF 5
