REMARK  2 active torsions:
REMARK  status: ('A' for Active; 'I' for Inactive)
REMARK    1  A    between atoms: C7_11  and  O2_15 
REMARK    2  A    between atoms: C8_12  and  O1_14 
ROOT
ATOM      1  C1   11 d          -0.143  -0.816  -1.363  0.00  0.00     0.120 A 
ATOM      2  C2   11 d           0.174   0.543  -1.565  0.00  0.00     0.127 A 
ATOM      3  C3   11 d           0.576   1.335  -0.498  0.00  0.00     0.098 A 
ATOM      4  N1   11 d           0.839   2.610  -0.882  0.00  0.00    -0.191 NA
ATOM      5  S1   11 d           0.596   2.840  -2.538  0.00  0.00     0.117 SA
ATOM      6  N2   11 d           0.120   1.146  -2.721  0.00  0.00    -0.189 NA
ATOM      7  C4   11 d           0.680   0.822   0.801  0.00  0.00     0.037 A 
ATOM      8  C5   11 d           0.368  -0.529   1.025  0.00  0.00     0.036 A 
ATOM      9  C6   11 d          -0.042  -1.353  -0.046  0.00  0.00     0.091 A 
ATOM     10  N3   11 d          -0.352  -2.692   0.165  0.00  0.00    -0.219 NA
ATOM     11  C7   11 d          -0.756  -3.493  -0.894  0.00  0.00     0.217 A 
ATOM     12  C8   11 d          -0.845  -2.965  -2.131  0.00  0.00     0.217 A 
ATOM     13  N4   11 d          -0.526  -1.566  -2.381  0.00  0.00    -0.216 NA
ENDROOT
BRANCH  11  14
ATOM     14  O2   11 d          -1.059  -4.744  -0.767  0.00  0.00    -0.342 OA
ATOM     15  H    11 d          -1.005  -5.211   0.187  0.00  0.00     0.219 HD
ENDBRANCH  11  14
BRANCH  12  16
ATOM     16  O1   11 d          -1.217  -3.672  -3.149  0.00  0.00    -0.342 OA
ATOM     17  H    11 d          -1.462  -4.700  -3.022  0.00  0.00     0.219 HD
ENDBRANCH  12  16
TORSDOF 2
