REMARK  3 active torsions:
REMARK  status: ('A' for Active; 'I' for Inactive)
REMARK    1  A    between atoms: C1_1  and  N4_25 
REMARK    2  A    between atoms: C2_2  and  N3_14 
REMARK    3  A    between atoms: N3_14  and  C12_15 
ROOT
ATOM      1  C1   11 d           1.514 -10.554  -4.707  0.00  0.00     0.129 A 
ATOM      2  C2   11 d           0.675 -10.867  -3.600  0.00  0.00     0.064 A 
ATOM      3  C3   11 d          -0.719 -10.978  -3.808  0.00  0.00     0.061 A 
ATOM      4  C4   11 d          -1.284 -10.880  -5.095  0.00  0.00     0.032 A 
ATOM      5  N1   11 d          -2.652 -11.097  -5.299  0.00  0.00    -0.378 N 
ATOM      6  C5   11 d          -3.426 -10.192  -6.080  0.00  0.00     0.150 C 
ATOM      7  C6   11 d          -4.658  -9.726  -5.290  0.00  0.00     0.254 C 
ATOM      8  N2   11 d          -5.417 -10.859  -4.656  0.00  0.00    -0.072 N 
ATOM      9  C7   11 d          -4.500 -11.770  -3.889  0.00  0.00     0.254 C 
ATOM     10  C8   11 d          -3.299 -12.229  -4.725  0.00  0.00     0.150 C 
ATOM     11  C9   11 d          -6.271 -11.600  -5.641  0.00  0.00     0.269 C 
ATOM     12  C10  11 d          -0.438 -10.590  -6.181  0.00  0.00     0.032 A 
ATOM     13  C11  11 d           0.937 -10.411  -5.986  0.00  0.00     0.040 A 
ATOM     14  H6   11 d          -6.093 -10.422  -3.942  0.00  0.00     0.279 HD
ENDROOT
BRANCH   2  15
ATOM     15  N3   11 d           1.218 -11.051  -2.325  0.00  0.00    -0.383 N 
ATOM     16  H16  11 d           2.026 -10.517  -2.091  0.00  0.00     0.160 HD
BRANCH  15  17
ATOM     17  C12  11 d           0.709 -11.963  -1.349  0.00  0.00     0.090 C 
ATOM     18  C13  11 d           1.676 -12.119  -0.131  0.00  0.00     0.009 C 
ATOM     19  C14  11 d           2.992 -12.822  -0.562  0.00  0.00     0.011 C 
ATOM     20  C20  11 d           0.996 -12.973   0.970  0.00  0.00     0.011 C 
ATOM     21  C15  11 d           2.674 -14.226  -1.125  0.00  0.00    -0.013 C 
ATOM     22  C16  11 d           1.727 -14.091  -2.340  0.00  0.00     0.011 C 
ATOM     23  C21  11 d           1.985 -15.073  -0.029  0.00  0.00     0.009 C 
ATOM     24  C17  11 d           0.414 -13.397  -1.902  0.00  0.00     0.009 C 
ATOM     25  C18  11 d          -0.270 -14.247  -0.803  0.00  0.00     0.011 C 
ATOM     26  C19  11 d           0.673 -14.380   0.415  0.00  0.00    -0.013 C 
ENDBRANCH  15  17
ENDBRANCH   2  15
BRANCH   1  27
ATOM     27  N4   11 d           2.889 -10.407  -4.561  0.00  0.00    -0.113 N 
ATOM     28  O1   11 d           3.490 -11.259  -4.088  0.00  0.00    -0.532 OA
ATOM     29  O2   11 d           3.509  -9.591  -5.297  0.00  0.00    -0.532 OA
ENDBRANCH   1  27
TORSDOF 3
