REMARK  1 active torsions:
REMARK  status: ('A' for Active; 'I' for Inactive)
REMARK    1  A    between atoms: C1_1  and  C2_2 
REMARK       I    between atoms: C1_1  and  N1_12 
ROOT
ATOM      1  C1   11 d           0.596  -2.322  -4.236  0.00  0.00     0.235 C 
ATOM      2  N1   11 d           1.209  -1.015  -4.288  0.00  0.00    -0.287 N 
ATOM      3  C12  11 d           1.133  -0.126  -5.387  0.00  0.00     0.227 C 
ATOM      4  O1   11 d           0.476  -0.360  -6.461  0.00  0.00    -0.273 OA
ATOM      5  C13  11 d           1.832   1.161  -5.145  0.00  0.00     0.114 C 
ATOM      6  C14  11 d           1.915   1.153  -3.611  0.00  0.00     0.046 C 
ATOM      7  C15  11 d           2.977   1.996  -2.922  0.00  0.00    -0.052 A 
ATOM      8  C16  11 d           2.846   2.215  -1.532  0.00  0.00     0.007 A 
ATOM      9  C17  11 d           3.772   3.007  -0.838  0.00  0.00     0.001 A 
ATOM     10  C18  11 d           4.831   3.613  -1.526  0.00  0.00     0.000 A 
ATOM     11  C19  11 d           4.959   3.433  -2.909  0.00  0.00     0.001 A 
ATOM     12  C20  11 d           4.035   2.639  -3.607  0.00  0.00     0.007 A 
ATOM     13  C21  11 d           2.025  -0.333  -3.249  0.00  0.00     0.144 C 
ATOM     14  O2   11 d          -0.053  -2.706  -5.275  0.00  0.00    -0.272 OA
ENDROOT
BRANCH   1  15
ATOM     15  C2   11 d           0.681  -3.310  -3.047  0.00  0.00     0.042 C 
ATOM     16  C3   11 d           0.163  -4.728  -3.477  0.00  0.00     0.024 C 
ATOM     17  C4   11 d           0.177  -5.729  -2.298  0.00  0.00    -0.013 C 
ATOM     18  C5   11 d          -0.729  -5.195  -1.165  0.00  0.00     0.009 C 
ATOM     19  C11  11 d           1.622  -5.884  -1.778  0.00  0.00     0.009 C 
ATOM     20  C6   11 d          -0.210  -3.816  -0.701  0.00  0.00    -0.013 C 
ATOM     21  C7   11 d          -0.245  -2.826  -1.891  0.00  0.00     0.024 C 
ATOM     22  C8   11 d           1.241  -3.959  -0.185  0.00  0.00     0.009 C 
ATOM     23  C9   11 d           2.146  -4.507  -1.315  0.00  0.00    -0.013 C 
ATOM     24  C10  11 d           2.132  -3.520  -2.506  0.00  0.00     0.024 C 
ENDBRANCH   1  15
TORSDOF 1
