MODEL 1
REMARK VINA RESULT:      -8.7      0.000      0.000
REMARK  5 active torsions:
REMARK  status: ('A' for Active; 'I' for Inactive)
REMARK    1  A    between atoms: C12_14  and  N3_16 
REMARK       I    between atoms: N3_16  and  C13_17 
REMARK    2  A    between atoms: C13_17  and  C14_19 
REMARK    3  A    between atoms: C14_19  and  N4_20 
REMARK    4  A    between atoms: N4_20  and  C15_21 
REMARK    5  A    between atoms: N4_20  and  C17_23 
ROOT
ATOM      1  C1   11 d         -12.595 207.458 113.709  0.00  0.00     0.109 A 
ATOM      2  C2   11 d         -13.624 206.891 112.741  0.00  0.00     0.014 C 
ATOM      3  C3   11 d         -14.834 206.292 113.524  0.00  0.00     0.021 C 
ATOM      4  C4   11 d         -15.911 205.762 112.548  0.00  0.00    -0.013 C 
ATOM      5  C5   11 d         -15.301 204.656 111.659  0.00  0.00     0.009 C 
ATOM      6  C6   11 d         -14.115 205.235 110.854  0.00  0.00    -0.013 C 
ATOM      7  C7   11 d         -13.038 205.763 111.831  0.00  0.00     0.021 C 
ATOM      8  C8   11 d         -14.615 206.398 109.964  0.00  0.00     0.009 C 
ATOM      9  C9   11 d         -15.225 207.507 110.852  0.00  0.00    -0.013 C 
ATOM     10  C10  11 d         -14.148 208.038 111.831  0.00  0.00     0.021 C 
ATOM     11  C11  11 d         -16.410 206.925 111.658  0.00  0.00     0.009 C 
ATOM     12  N1   11 d         -12.836 207.825 114.993  0.00  0.00    -0.144 NA
ATOM     13  N2   11 d         -11.744 208.214 115.607  0.00  0.00    -0.123 NA
ATOM     14  C12  11 d         -10.664 208.114 114.801  0.00  0.00     0.196 A 
ATOM     15  S1   11 d         -11.118 207.591 113.477  0.00  0.00    -0.032 SA
ENDROOT
BRANCH  14  16
ATOM     16  N3   11 d          -9.277 208.442 115.135  0.00  0.00    -0.303 N 
ATOM     17  C13  11 d          -8.590 209.528 114.523  0.00  0.00     0.249 C 
ATOM     18  O1   11 d          -9.167 210.264 113.649  0.00  0.00    -0.271 OA
ATOM     19  H16  11 d          -8.782 207.832 115.868  0.00  0.00     0.171 HD
BRANCH  17  20
ATOM     20  C14  11 d          -7.168 209.840 114.901  0.00  0.00     0.337 C 
BRANCH  20  21
ATOM     21  N4   11 d          -6.189 209.753 113.754  0.00  0.00    -0.064 N 
ATOM     22  H19  11 d          -6.522 210.448 113.000  0.00  0.00     0.280 HD
BRANCH  21  23
ATOM     23  C15  11 d          -6.268 208.376 113.139  0.00  0.00     0.231 C 
ATOM     24  C16  11 d          -6.816 208.334 111.709  0.00  0.00     0.034 C 
ENDBRANCH  21  23
BRANCH  21  25
ATOM     25  C17  11 d          -4.782 210.119 114.193  0.00  0.00     0.231 C 
ATOM     26  C18  11 d          -4.024 208.982 114.889  0.00  0.00     0.034 C 
ENDBRANCH  21  25
ENDBRANCH  20  21
ENDBRANCH  17  20
ENDBRANCH  14  16
TORSDOF 5
ENDMDL
MODEL 2
REMARK VINA RESULT:      -8.5      3.069      3.697
REMARK  5 active torsions:
REMARK  status: ('A' for Active; 'I' for Inactive)
REMARK    1  A    between atoms: C12_14  and  N3_16 
REMARK       I    between atoms: N3_16  and  C13_17 
REMARK    2  A    between atoms: C13_17  and  C14_19 
REMARK    3  A    between atoms: C14_19  and  N4_20 
REMARK    4  A    between atoms: N4_20  and  C15_21 
REMARK    5  A    between atoms: N4_20  and  C17_23 
ROOT
ATOM      1  C1   11 d         -12.860 207.325 113.853  0.00  0.00     0.109 A 
ATOM      2  C2   11 d         -13.794 206.741 112.803  0.00  0.00     0.014 C 
ATOM      3  C3   11 d         -15.101 207.590 112.707  0.00  0.00     0.021 C 
ATOM      4  C4   11 d         -16.034 207.038 111.603  0.00  0.00    -0.013 C 
ATOM      5  C5   11 d         -16.415 205.578 111.934  0.00  0.00     0.009 C 
ATOM      6  C6   11 d         -15.136 204.714 112.007  0.00  0.00    -0.013 C 
ATOM      7  C7   11 d         -14.204 205.266 113.113  0.00  0.00     0.021 C 
ATOM      8  C8   11 d         -14.401 204.762 110.646  0.00  0.00     0.009 C 
ATOM      9  C9   11 d         -14.018 206.223 110.314  0.00  0.00    -0.013 C 
ATOM     10  C10  11 d         -13.085 206.778 111.419  0.00  0.00     0.021 C 
ATOM     11  C11  11 d         -15.299 207.086 110.242  0.00  0.00     0.009 C 
ATOM     12  N1   11 d         -12.892 208.599 114.320  0.00  0.00    -0.144 NA
ATOM     13  N2   11 d         -12.012 208.797 115.272  0.00  0.00    -0.123 NA
ATOM     14  C12  11 d         -11.330 207.665 115.554  0.00  0.00     0.196 A 
ATOM     15  S1   11 d         -11.834 206.582 114.658  0.00  0.00    -0.032 SA
ENDROOT
BRANCH  14  16
ATOM     16  N3   11 d         -10.281 207.492 116.561  0.00  0.00    -0.303 N 
ATOM     17  C13  11 d         -10.525 207.694 117.948  0.00  0.00     0.249 C 
ATOM     18  O1   11 d         -11.683 208.036 118.370  0.00  0.00    -0.271 OA
ATOM     19  H16  11 d          -9.304 207.202 116.219  0.00  0.00     0.171 HD
BRANCH  17  20
ATOM     20  C14  11 d          -9.422 207.495 118.953  0.00  0.00     0.337 C 
BRANCH  20  21
ATOM     21  N4   11 d          -8.487 208.673 119.085  0.00  0.00    -0.064 N 
ATOM     22  H19  11 d          -8.831 209.430 118.399  0.00  0.00     0.280 HD
BRANCH  21  23
ATOM     23  C15  11 d          -7.108 208.265 118.623  0.00  0.00     0.231 C 
ATOM     24  C16  11 d          -6.950 206.781 118.280  0.00  0.00     0.034 C 
ENDBRANCH  21  23
BRANCH  21  25
ATOM     25  C17  11 d          -8.490 209.232 120.498  0.00  0.00     0.231 C 
ATOM     26  C18  11 d          -7.374 210.246 120.776  0.00  0.00     0.034 C 
ENDBRANCH  21  25
ENDBRANCH  20  21
ENDBRANCH  17  20
ENDBRANCH  14  16
TORSDOF 5
ENDMDL
MODEL 3
REMARK VINA RESULT:      -7.9      3.008      3.681
REMARK  5 active torsions:
REMARK  status: ('A' for Active; 'I' for Inactive)
REMARK    1  A    between atoms: C12_14  and  N3_16 
REMARK       I    between atoms: N3_16  and  C13_17 
REMARK    2  A    between atoms: C13_17  and  C14_19 
REMARK    3  A    between atoms: C14_19  and  N4_20 
REMARK    4  A    between atoms: N4_20  and  C15_21 
REMARK    5  A    between atoms: N4_20  and  C17_23 
ROOT
ATOM      1  C1   11 d         -13.639 207.275 114.418  0.00  0.00     0.109 A 
ATOM      2  C2   11 d         -14.161 206.776 113.078  0.00  0.00     0.014 C 
ATOM      3  C3   11 d         -15.306 205.738 113.293  0.00  0.00     0.021 C 
ATOM      4  C4   11 d         -15.882 205.266 111.937  0.00  0.00    -0.013 C 
ATOM      5  C5   11 d         -14.761 204.601 111.107  0.00  0.00     0.009 C 
ATOM      6  C6   11 d         -13.627 205.621 110.859  0.00  0.00    -0.013 C 
ATOM      7  C7   11 d         -13.052 206.092 112.216  0.00  0.00     0.021 C 
ATOM      8  C8   11 d         -14.188 206.840 110.090  0.00  0.00     0.009 C 
ATOM      9  C9   11 d         -15.310 207.508 110.920  0.00  0.00    -0.013 C 
ATOM     10  C10  11 d         -14.736 207.981 112.278  0.00  0.00     0.021 C 
ATOM     11  C11  11 d         -16.443 206.485 111.168  0.00  0.00     0.009 C 
ATOM     12  N1   11 d         -14.310 207.222 115.597  0.00  0.00    -0.144 NA
ATOM     13  N2   11 d         -13.584 207.662 116.597  0.00  0.00    -0.123 NA
ATOM     14  C12  11 d         -12.348 208.023 116.185  0.00  0.00     0.196 A 
ATOM     15  S1   11 d         -12.260 207.787 114.713  0.00  0.00    -0.032 SA
ENDROOT
BRANCH  14  16
ATOM     16  N3   11 d         -11.259 208.547 117.011  0.00  0.00    -0.303 N 
ATOM     17  C13  11 d         -10.625 207.760 118.013  0.00  0.00     0.249 C 
ATOM     18  O1   11 d         -10.987 206.552 118.229  0.00  0.00    -0.271 OA
ATOM     19  H16  11 d         -10.944 209.560 116.838  0.00  0.00     0.171 HD
BRANCH  17  20
ATOM     20  C14  11 d          -9.500 208.332 118.834  0.00  0.00     0.337 C 
BRANCH  20  21
ATOM     21  N4   11 d          -8.254 207.480 118.855  0.00  0.00    -0.064 N 
ATOM     22  H19  11 d          -8.479 206.575 118.313  0.00  0.00     0.280 HD
BRANCH  21  23
ATOM     23  C15  11 d          -7.958 207.070 120.278  0.00  0.00     0.231 C 
ATOM     24  C16  11 d          -7.858 205.559 120.512  0.00  0.00     0.034 C 
ENDBRANCH  21  23
BRANCH  21  25
ATOM     25  C17  11 d          -7.084 208.187 118.194  0.00  0.00     0.231 C 
ATOM     26  C18  11 d          -6.182 207.268 117.360  0.00  0.00     0.034 C 
ENDBRANCH  21  25
ENDBRANCH  20  21
ENDBRANCH  17  20
ENDBRANCH  14  16
TORSDOF 5
ENDMDL
MODEL 4
REMARK VINA RESULT:      -7.9      4.928      6.986
REMARK  5 active torsions:
REMARK  status: ('A' for Active; 'I' for Inactive)
REMARK    1  A    between atoms: C12_14  and  N3_16 
REMARK       I    between atoms: N3_16  and  C13_17 
REMARK    2  A    between atoms: C13_17  and  C14_19 
REMARK    3  A    between atoms: C14_19  and  N4_20 
REMARK    4  A    between atoms: N4_20  and  C15_21 
REMARK    5  A    between atoms: N4_20  and  C17_23 
ROOT
ATOM      1  C1   11 d         -14.311 207.065 114.691  0.00  0.00     0.109 A 
ATOM      2  C2   11 d         -14.545 206.682 113.236  0.00  0.00     0.014 C 
ATOM      3  C3   11 d         -14.811 207.957 112.376  0.00  0.00     0.021 C 
ATOM      4  C4   11 d         -14.996 207.584 110.886  0.00  0.00    -0.013 C 
ATOM      5  C5   11 d         -16.201 206.628 110.740  0.00  0.00     0.009 C 
ATOM      6  C6   11 d         -15.946 205.346 111.564  0.00  0.00    -0.013 C 
ATOM      7  C7   11 d         -15.763 205.720 113.055  0.00  0.00     0.021 C 
ATOM      8  C8   11 d         -14.665 204.647 111.051  0.00  0.00     0.009 C 
ATOM      9  C9   11 d         -13.457 205.602 111.197  0.00  0.00    -0.013 C 
ATOM     10  C10  11 d         -13.272 205.978 112.688  0.00  0.00     0.021 C 
ATOM     11  C11  11 d         -13.715 206.885 110.372  0.00  0.00     0.009 C 
ATOM     12  N1   11 d         -13.931 208.290 115.135  0.00  0.00    -0.144 NA
ATOM     13  N2   11 d         -13.875 208.344 116.444  0.00  0.00    -0.123 NA
ATOM     14  C12  11 d         -14.244 207.169 117.001  0.00  0.00     0.196 A 
ATOM     15  S1   11 d         -14.583 206.218 115.900  0.00  0.00    -0.032 SA
ENDROOT
BRANCH  14  16
ATOM     16  N3   11 d         -14.319 206.851 118.428  0.00  0.00    -0.303 N 
ATOM     17  C13  11 d         -13.408 205.952 119.050  0.00  0.00     0.249 C 
ATOM     18  O1   11 d         -12.481 205.383 118.377  0.00  0.00    -0.271 OA
ATOM     19  H16  11 d         -15.094 207.324 119.005  0.00  0.00     0.171 HD
BRANCH  17  20
ATOM     20  C14  11 d         -13.512 205.659 120.523  0.00  0.00     0.337 C 
BRANCH  20  21
ATOM     21  N4   11 d         -14.113 204.311 120.845  0.00  0.00    -0.064 N 
ATOM     22  H19  11 d         -13.701 203.605 120.143  0.00  0.00     0.280 HD
BRANCH  21  23
ATOM     23  C15  11 d         -15.601 204.359 120.588  0.00  0.00     0.231 C 
ATOM     24  C16  11 d         -16.204 203.069 120.023  0.00  0.00     0.034 C 
ENDBRANCH  21  23
BRANCH  21  25
ATOM     25  C17  11 d         -13.777 203.875 122.260  0.00  0.00     0.231 C 
ATOM     26  C18  11 d         -12.325 204.148 122.674  0.00  0.00     0.034 C 
ENDBRANCH  21  25
ENDBRANCH  20  21
ENDBRANCH  17  20
ENDBRANCH  14  16
TORSDOF 5
ENDMDL
MODEL 5
REMARK VINA RESULT:      -7.5      5.203      7.712
REMARK  5 active torsions:
REMARK  status: ('A' for Active; 'I' for Inactive)
REMARK    1  A    between atoms: C12_14  and  N3_16 
REMARK       I    between atoms: N3_16  and  C13_17 
REMARK    2  A    between atoms: C13_17  and  C14_19 
REMARK    3  A    between atoms: C14_19  and  N4_20 
REMARK    4  A    between atoms: N4_20  and  C15_21 
REMARK    5  A    between atoms: N4_20  and  C17_23 
ROOT
ATOM      1  C1   11 d         -13.850 206.425 115.080  0.00  0.00     0.109 A 
ATOM      2  C2   11 d         -14.287 206.367 113.623  0.00  0.00     0.014 C 
ATOM      3  C3   11 d         -14.580 207.803 113.087  0.00  0.00     0.021 C 
ATOM      4  C4   11 d         -14.972 207.761 111.591  0.00  0.00    -0.013 C 
ATOM      5  C5   11 d         -16.242 206.899 111.415  0.00  0.00     0.009 C 
ATOM      6  C6   11 d         -15.965 205.463 111.917  0.00  0.00    -0.013 C 
ATOM      7  C7   11 d         -15.574 205.507 113.414  0.00  0.00     0.021 C 
ATOM      8  C8   11 d         -14.803 204.847 111.102  0.00  0.00     0.009 C 
ATOM      9  C9   11 d         -13.530 205.709 111.277  0.00  0.00    -0.013 C 
ATOM     10  C10  11 d         -13.137 205.753 112.774  0.00  0.00     0.021 C 
ATOM     11  C11  11 d         -13.810 207.145 110.776  0.00  0.00     0.009 C 
ATOM     12  N1   11 d         -13.343 207.514 115.711  0.00  0.00    -0.144 NA
ATOM     13  N2   11 d         -13.121 207.288 116.984  0.00  0.00    -0.123 NA
ATOM     14  C12  11 d         -13.489 206.034 117.331  0.00  0.00     0.196 A 
ATOM     15  S1   11 d         -14.019 205.350 116.115  0.00  0.00    -0.032 SA
ENDROOT
BRANCH  14  16
ATOM     16  N3   11 d         -13.404 205.424 118.659  0.00  0.00    -0.303 N 
ATOM     17  C13  11 d         -13.865 206.092 119.828  0.00  0.00     0.249 C 
ATOM     18  O1   11 d         -14.376 207.262 119.759  0.00  0.00    -0.271 OA
ATOM     19  H16  11 d         -12.977 204.439 118.730  0.00  0.00     0.171 HD
BRANCH  17  20
ATOM     20  C14  11 d         -13.770 205.425 121.174  0.00  0.00     0.337 C 
BRANCH  20  21
ATOM     21  N4   11 d         -15.106 205.094 121.796  0.00  0.00    -0.064 N 
ATOM     22  H19  11 d         -15.861 205.591 121.209  0.00  0.00     0.280 HD
BRANCH  21  23
ATOM     23  C15  11 d         -15.170 205.693 123.181  0.00  0.00     0.231 C 
ATOM     24  C16  11 d         -16.509 205.518 123.903  0.00  0.00     0.034 C 
ENDBRANCH  21  23
BRANCH  21  25
ATOM     25  C17  11 d         -15.367 203.598 121.793  0.00  0.00     0.231 C 
ATOM     26  C18  11 d         -16.519 203.162 120.879  0.00  0.00     0.034 C 
ENDBRANCH  21  25
ENDBRANCH  20  21
ENDBRANCH  17  20
ENDBRANCH  14  16
TORSDOF 5
ENDMDL
MODEL 6
REMARK VINA RESULT:      -7.4      3.462      4.202
REMARK  5 active torsions:
REMARK  status: ('A' for Active; 'I' for Inactive)
REMARK    1  A    between atoms: C12_14  and  N3_16 
REMARK       I    between atoms: N3_16  and  C13_17 
REMARK    2  A    between atoms: C13_17  and  C14_19 
REMARK    3  A    between atoms: C14_19  and  N4_20 
REMARK    4  A    between atoms: N4_20  and  C15_21 
REMARK    5  A    between atoms: N4_20  and  C17_23 
ROOT
ATOM      1  C1   11 d         -11.850 207.443 116.803  0.00  0.00     0.109 A 
ATOM      2  C2   11 d         -12.730 207.196 115.586  0.00  0.00     0.014 C 
ATOM      3  C3   11 d         -13.282 205.737 115.602  0.00  0.00     0.021 C 
ATOM      4  C4   11 d         -14.223 205.492 114.398  0.00  0.00    -0.013 C 
ATOM      5  C5   11 d         -13.443 205.712 113.082  0.00  0.00     0.009 C 
ATOM      6  C6   11 d         -12.909 207.162 113.034  0.00  0.00    -0.013 C 
ATOM      7  C7   11 d         -11.967 207.404 114.238  0.00  0.00     0.021 C 
ATOM      8  C8   11 d         -14.096 208.152 113.105  0.00  0.00     0.009 C 
ATOM      9  C9   11 d         -14.878 207.934 114.421  0.00  0.00    -0.013 C 
ATOM     10  C10  11 d         -13.937 208.177 115.628  0.00  0.00     0.021 C 
ATOM     11  C11  11 d         -15.410 206.482 114.468  0.00  0.00     0.009 C 
ATOM     12  N1   11 d         -11.876 206.727 117.956  0.00  0.00    -0.144 NA
ATOM     13  N2   11 d         -10.956 207.124 118.803  0.00  0.00    -0.123 NA
ATOM     14  C12  11 d         -10.207 208.122 118.283  0.00  0.00     0.196 A 
ATOM     15  S1   11 d         -10.713 208.418 116.910  0.00  0.00    -0.032 SA
ENDROOT
BRANCH  14  16
ATOM     16  N3   11 d          -9.084 208.809 118.923  0.00  0.00    -0.303 N 
ATOM     17  C13  11 d          -7.755 208.306 118.857  0.00  0.00     0.249 C 
ATOM     18  O1   11 d          -7.490 207.224 118.228  0.00  0.00    -0.271 OA
ATOM     19  H16  11 d          -9.293 209.721 119.453  0.00  0.00     0.171 HD
BRANCH  17  20
ATOM     20  C14  11 d          -6.625 209.049 119.519  0.00  0.00     0.337 C 
BRANCH  20  21
ATOM     21  N4   11 d          -6.501 210.494 119.093  0.00  0.00    -0.064 N 
ATOM     22  H19  11 d          -7.354 210.715 118.472  0.00  0.00     0.280 HD
BRANCH  21  23
ATOM     23  C15  11 d          -5.278 210.650 118.221  0.00  0.00     0.231 C 
ATOM     24  C16  11 d          -5.467 210.243 116.757  0.00  0.00     0.034 C 
ENDBRANCH  21  23
BRANCH  21  25
ATOM     25  C17  11 d          -6.491 211.428 120.290  0.00  0.00     0.231 C 
ATOM     26  C18  11 d          -5.244 212.316 120.385  0.00  0.00     0.034 C 
ENDBRANCH  21  25
ENDBRANCH  20  21
ENDBRANCH  17  20
ENDBRANCH  14  16
TORSDOF 5
ENDMDL
MODEL 7
REMARK VINA RESULT:      -7.0      6.590      8.850
REMARK  5 active torsions:
REMARK  status: ('A' for Active; 'I' for Inactive)
REMARK    1  A    between atoms: C12_14  and  N3_16 
REMARK       I    between atoms: N3_16  and  C13_17 
REMARK    2  A    between atoms: C13_17  and  C14_19 
REMARK    3  A    between atoms: C14_19  and  N4_20 
REMARK    4  A    between atoms: N4_20  and  C15_21 
REMARK    5  A    between atoms: N4_20  and  C17_23 
ROOT
ATOM      1  C1   11 d         -13.708 206.246 117.213  0.00  0.00     0.109 A 
ATOM      2  C2   11 d         -13.774 206.496 115.713  0.00  0.00     0.014 C 
ATOM      3  C3   11 d         -13.923 208.023 115.424  0.00  0.00     0.021 C 
ATOM      4  C4   11 d         -13.934 208.294 113.901  0.00  0.00    -0.013 C 
ATOM      5  C5   11 d         -15.124 207.550 113.254  0.00  0.00     0.009 C 
ATOM      6  C6   11 d         -14.982 206.032 113.507  0.00  0.00    -0.013 C 
ATOM      7  C7   11 d         -14.972 205.761 115.031  0.00  0.00     0.021 C 
ATOM      8  C8   11 d         -13.656 205.527 112.888  0.00  0.00     0.009 C 
ATOM      9  C9   11 d         -12.464 206.271 113.534  0.00  0.00    -0.013 C 
ATOM     10  C10  11 d         -12.452 206.001 115.060  0.00  0.00     0.021 C 
ATOM     11  C11  11 d         -12.609 207.789 113.282  0.00  0.00     0.009 C 
ATOM     12  N1   11 d         -13.370 207.163 118.154  0.00  0.00    -0.144 NA
ATOM     13  N2   11 d         -13.468 206.681 119.370  0.00  0.00    -0.123 NA
ATOM     14  C12  11 d         -13.913 205.405 119.358  0.00  0.00     0.196 A 
ATOM     15  S1   11 d         -14.129 205.000 117.937  0.00  0.00    -0.032 SA
ENDROOT
BRANCH  14  16
ATOM     16  N3   11 d         -14.158 204.543 120.516  0.00  0.00    -0.303 N 
ATOM     17  C13  11 d         -15.406 204.536 121.200  0.00  0.00     0.249 C 
ATOM     18  O1   11 d         -16.369 205.289 120.823  0.00  0.00    -0.271 OA
ATOM     19  H16  11 d         -13.357 203.904 120.842  0.00  0.00     0.171 HD
BRANCH  17  20
ATOM     20  C14  11 d         -15.623 203.627 122.380  0.00  0.00     0.337 C 
BRANCH  20  21
ATOM     21  N4   11 d         -14.741 203.934 123.567  0.00  0.00    -0.064 N 
ATOM     22  H19  11 d         -14.012 204.658 123.242  0.00  0.00     0.280 HD
BRANCH  21  23
ATOM     23  C15  11 d         -13.975 202.690 123.950  0.00  0.00     0.231 C 
ATOM     24  C16  11 d         -12.511 202.664 123.500  0.00  0.00     0.034 C 
ENDBRANCH  21  23
BRANCH  21  25
ATOM     25  C17  11 d         -15.542 204.507 124.723  0.00  0.00     0.231 C 
ATOM     26  C18  11 d         -17.062 204.372 124.564  0.00  0.00     0.034 C 
ENDBRANCH  21  25
ENDBRANCH  20  21
ENDBRANCH  17  20
ENDBRANCH  14  16
TORSDOF 5
ENDMDL
MODEL 8
REMARK VINA RESULT:      -6.9      5.977      7.712
REMARK  5 active torsions:
REMARK  status: ('A' for Active; 'I' for Inactive)
REMARK    1  A    between atoms: C12_14  and  N3_16 
REMARK       I    between atoms: N3_16  and  C13_17 
REMARK    2  A    between atoms: C13_17  and  C14_19 
REMARK    3  A    between atoms: C14_19  and  N4_20 
REMARK    4  A    between atoms: N4_20  and  C15_21 
REMARK    5  A    between atoms: N4_20  and  C17_23 
ROOT
ATOM      1  C1   11 d         -13.146 206.489 116.695  0.00  0.00     0.109 A 
ATOM      2  C2   11 d         -13.592 206.554 115.241  0.00  0.00     0.014 C 
ATOM      3  C3   11 d         -13.815 208.036 114.806  0.00  0.00     0.021 C 
ATOM      4  C4   11 d         -14.215 208.117 113.314  0.00  0.00    -0.013 C 
ATOM      5  C5   11 d         -15.527 207.332 113.090  0.00  0.00     0.009 C 
ATOM      6  C6   11 d         -15.320 205.854 113.490  0.00  0.00    -0.013 C 
ATOM      7  C7   11 d         -14.922 205.775 114.983  0.00  0.00     0.021 C 
ATOM      8  C8   11 d         -14.194 205.238 112.625  0.00  0.00     0.009 C 
ATOM      9  C9   11 d         -12.879 206.021 112.849  0.00  0.00    -0.013 C 
ATOM     10  C10  11 d         -12.478 205.943 114.343  0.00  0.00     0.021 C 
ATOM     11  C11  11 d         -13.089 207.501 112.450  0.00  0.00     0.009 C 
ATOM     12  N1   11 d         -12.582 207.506 117.395  0.00  0.00    -0.144 NA
ATOM     13  N2   11 d         -12.366 207.182 118.647  0.00  0.00    -0.123 NA
ATOM     14  C12  11 d         -12.795 205.928 118.911  0.00  0.00     0.196 A 
ATOM     15  S1   11 d         -13.364 205.356 117.655  0.00  0.00    -0.032 SA
ENDROOT
BRANCH  14  16
ATOM     16  N3   11 d         -12.735 205.224 120.193  0.00  0.00    -0.303 N 
ATOM     17  C13  11 d         -13.553 205.594 121.296  0.00  0.00     0.249 C 
ATOM     18  O1   11 d         -14.381 206.565 121.206  0.00  0.00    -0.271 OA
ATOM     19  H16  11 d         -12.044 204.405 120.281  0.00  0.00     0.171 HD
BRANCH  17  20
ATOM     20  C14  11 d         -13.470 204.838 122.595  0.00  0.00     0.337 C 
BRANCH  20  21
ATOM     21  N4   11 d         -12.453 203.720 122.596  0.00  0.00    -0.064 N 
ATOM     22  H19  11 d         -12.361 203.375 121.579  0.00  0.00     0.280 HD
BRANCH  21  23
ATOM     23  C15  11 d         -12.993 202.560 123.399  0.00  0.00     0.231 C 
ATOM     24  C16  11 d         -14.378 202.785 124.014  0.00  0.00     0.034 C 
ENDBRANCH  21  23
BRANCH  21  25
ATOM     25  C17  11 d         -11.100 204.197 123.093  0.00  0.00     0.231 C 
ATOM     26  C18  11 d         -11.115 204.753 124.523  0.00  0.00     0.034 C 
ENDBRANCH  21  25
ENDBRANCH  20  21
ENDBRANCH  17  20
ENDBRANCH  14  16
TORSDOF 5
ENDMDL
MODEL 9
REMARK VINA RESULT:      -6.9      6.659      9.972
REMARK  5 active torsions:
REMARK  status: ('A' for Active; 'I' for Inactive)
REMARK    1  A    between atoms: C12_14  and  N3_16 
REMARK       I    between atoms: N3_16  and  C13_17 
REMARK    2  A    between atoms: C13_17  and  C14_19 
REMARK    3  A    between atoms: C14_19  and  N4_20 
REMARK    4  A    between atoms: N4_20  and  C15_21 
REMARK    5  A    between atoms: N4_20  and  C17_23 
ROOT
ATOM      1  C1   11 d         -13.310 206.124 117.886  0.00  0.00     0.109 A 
ATOM      2  C2   11 d         -13.054 206.542 116.444  0.00  0.00     0.014 C 
ATOM      3  C3   11 d         -12.444 207.977 116.396  0.00  0.00     0.021 C 
ATOM      4  C4   11 d         -12.128 208.391 114.939  0.00  0.00    -0.013 C 
ATOM      5  C5   11 d         -13.430 208.378 114.107  0.00  0.00     0.009 C 
ATOM      6  C6   11 d         -14.038 206.958 114.120  0.00  0.00    -0.013 C 
ATOM      7  C7   11 d         -14.354 206.546 115.578  0.00  0.00     0.021 C 
ATOM      8  C8   11 d         -13.026 205.957 113.513  0.00  0.00     0.009 C 
ATOM      9  C9   11 d         -11.722 205.967 114.345  0.00  0.00    -0.013 C 
ATOM     10  C10  11 d         -12.036 205.555 115.805  0.00  0.00     0.021 C 
ATOM     11  C11  11 d         -11.116 207.390 114.331  0.00  0.00     0.009 C 
ATOM     12  N1   11 d         -12.713 206.658 118.982  0.00  0.00    -0.144 NA
ATOM     13  N2   11 d         -13.182 206.148 120.095  0.00  0.00    -0.123 NA
ATOM     14  C12  11 d         -14.159 205.246 119.850  0.00  0.00     0.196 A 
ATOM     15  S1   11 d         -14.348 205.155 118.372  0.00  0.00    -0.032 SA
ENDROOT
BRANCH  14  16
ATOM     16  N3   11 d         -14.923 204.481 120.836  0.00  0.00    -0.303 N 
ATOM     17  C13  11 d         -16.114 204.989 121.427  0.00  0.00     0.249 C 
ATOM     18  O1   11 d         -16.564 206.144 121.113  0.00  0.00    -0.271 OA
ATOM     19  H16  11 d         -14.556 203.508 121.107  0.00  0.00     0.171 HD
BRANCH  17  20
ATOM     20  C14  11 d         -16.879 204.166 122.429  0.00  0.00     0.337 C 
BRANCH  20  21
ATOM     21  N4   11 d         -18.313 204.598 122.619  0.00  0.00    -0.064 N 
ATOM     22  H19  11 d         -18.378 205.629 122.308  0.00  0.00     0.280 HD
BRANCH  21  23
ATOM     23  C15  11 d         -18.649 204.570 124.092  0.00  0.00     0.231 C 
ATOM     24  C16  11 d         -19.940 203.827 124.449  0.00  0.00     0.034 C 
ENDBRANCH  21  23
BRANCH  21  25
ATOM     25  C17  11 d         -19.264 203.758 121.785  0.00  0.00     0.231 C 
ATOM     26  C18  11 d         -19.863 204.494 120.580  0.00  0.00     0.034 C 
ENDBRANCH  21  25
ENDBRANCH  20  21
ENDBRANCH  17  20
ENDBRANCH  14  16
TORSDOF 5
ENDMDL
MODEL 10
REMARK VINA RESULT:      -6.7      5.134      6.885
REMARK  5 active torsions:
REMARK  status: ('A' for Active; 'I' for Inactive)
REMARK    1  A    between atoms: C12_14  and  N3_16 
REMARK       I    between atoms: N3_16  and  C13_17 
REMARK    2  A    between atoms: C13_17  and  C14_19 
REMARK    3  A    between atoms: C14_19  and  N4_20 
REMARK    4  A    between atoms: N4_20  and  C15_21 
REMARK    5  A    between atoms: N4_20  and  C17_23 
ROOT
ATOM      1  C1   11 d         -13.747 206.254 115.315  0.00  0.00     0.109 A 
ATOM      2  C2   11 d         -14.219 206.299 113.868  0.00  0.00     0.014 C 
ATOM      3  C3   11 d         -14.294 207.774 113.367  0.00  0.00     0.021 C 
ATOM      4  C4   11 d         -14.719 207.828 111.880  0.00  0.00    -0.013 C 
ATOM      5  C5   11 d         -16.112 207.179 111.720  0.00  0.00     0.009 C 
ATOM      6  C6   11 d         -16.054 205.708 112.187  0.00  0.00    -0.013 C 
ATOM      7  C7   11 d         -15.630 205.655 113.674  0.00  0.00     0.021 C 
ATOM      8  C8   11 d         -15.021 204.935 111.332  0.00  0.00     0.009 C 
ATOM      9  C9   11 d         -13.625 205.583 111.492  0.00  0.00    -0.013 C 
ATOM     10  C10  11 d         -13.199 205.531 112.980  0.00  0.00     0.021 C 
ATOM     11  C11  11 d         -13.687 207.056 111.025  0.00  0.00     0.009 C 
ATOM     12  N1   11 d         -13.062 207.236 115.954  0.00  0.00    -0.144 NA
ATOM     13  N2   11 d         -12.851 206.949 117.216  0.00  0.00    -0.123 NA
ATOM     14  C12  11 d         -13.404 205.761 117.549  0.00  0.00     0.196 A 
ATOM     15  S1   11 d         -14.061 205.196 116.333  0.00  0.00    -0.032 SA
ENDROOT
BRANCH  14  16
ATOM     16  N3   11 d         -13.388 205.116 118.862  0.00  0.00    -0.303 N 
ATOM     17  C13  11 d         -13.757 205.809 120.049  0.00  0.00     0.249 C 
ATOM     18  O1   11 d         -14.122 207.034 120.009  0.00  0.00    -0.271 OA
ATOM     19  H16  11 d         -13.085 204.085 118.908  0.00  0.00     0.171 HD
BRANCH  17  20
ATOM     20  C14  11 d         -13.738 205.105 121.380  0.00  0.00     0.337 C 
BRANCH  20  21
ATOM     21  N4   11 d         -12.570 205.481 122.260  0.00  0.00    -0.064 N 
ATOM     22  H19  11 d         -12.380 206.530 122.105  0.00  0.00     0.280 HD
BRANCH  21  23
ATOM     23  C15  11 d         -11.338 204.744 121.790  0.00  0.00     0.231 C 
ATOM     24  C16  11 d         -10.063 205.589 121.720  0.00  0.00     0.034 C 
ENDBRANCH  21  23
BRANCH  21  25
ATOM     25  C17  11 d         -12.876 205.233 123.727  0.00  0.00     0.231 C 
ATOM     26  C18  11 d         -12.285 203.931 124.282  0.00  0.00     0.034 C 
ENDBRANCH  21  25
ENDBRANCH  20  21
ENDBRANCH  17  20
ENDBRANCH  14  16
TORSDOF 5
ENDMDL
