REMARK  2 active torsions:
REMARK  status: ('A' for Active; 'I' for Inactive)
REMARK    1  A    between atoms: C13_17  and  S1_21 
REMARK    2  A    between atoms: O3_22  and  S1_21 
ROOT
ATOM      1  C1  <1> d           5.479  42.288  49.591  0.00  0.00     0.042 A 
ATOM      2  C2  <1> d           4.474  42.643  50.507  0.00  0.00     0.045 A 
ATOM      3  C3  <1> d           3.185  42.041  50.488  0.00  0.00     0.013 A 
ATOM      4  C4  <1> d           2.939  41.052  49.489  0.00  0.00     0.001 A 
ATOM      5  C5  <1> d           3.962  40.688  48.549  0.00  0.00     0.002 A 
ATOM      6  C6  <1> d           5.251  41.307  48.589  0.00  0.00     0.024 A 
ATOM      7  C7  <1> d           5.139  43.688  51.353  0.00  0.00     0.209 A 
ATOM      8  O1  <1> d           4.608  44.260  52.282  0.00  0.00    -0.285 OA
ATOM      9  C8  <1> d           6.514  43.828  50.830  0.00  0.00     0.092 A 
ATOM     10  C9  <1> d           7.575  44.609  51.186  0.00  0.00     0.071 A 
ATOM     11  C10 <1> d           8.895  44.592  50.514  0.00  0.00     0.251 A 
ATOM     12  O2  <1> d           9.167  43.886  49.543  0.00  0.00    -0.270 OA
ATOM     13  N1  <1> d           9.694  45.429  51.104  0.00  0.00    -0.281 N 
ATOM     14  N2  <1> d           6.596  42.991  49.815  0.00  0.00    -0.310 N 
ATOM     15  C11 <1> d           7.776  45.632  52.303  0.00  0.00     0.012 A 
ATOM     16  C12 <1> d           6.991  46.187  53.355  0.00  0.00     0.040 A 
ATOM     17  C13 <1> d           7.591  47.156  54.223  0.00  0.00     0.117 A 
ATOM     18  C14 <1> d           8.941  47.558  54.040  0.00  0.00     0.031 A 
ATOM     19  C15 <1> d           9.716  47.006  52.984  0.00  0.00     0.026 A 
ATOM     20  C16 <1> d           9.111  46.047  52.134  0.00  0.00     0.042 A 
ATOM     21  H5  <1> d          10.639  45.592  50.819  0.00  0.00     0.155 HD
ATOM     22  H6  <1> d           7.422  42.890  49.260  0.00  0.00     0.152 HD
ENDROOT
BRANCH  17  23
ATOM     23  S1  <1> d           6.585  47.819  55.525  0.00  0.00     0.110 S 
ATOM     24  O4  <1> d           6.190  46.745  56.409  0.00  0.00    -0.142 OA
ATOM     25  O5  <1> d           5.563  48.627  54.891  0.00  0.00    -0.142 OA
BRANCH  23  26
ATOM     26  O3  <1> d           7.483  48.751  56.254  0.00  0.00    -0.250 OA
ATOM     27  H10 <1> d           6.984  49.170  57.012  0.00  0.00     0.245 HD
ENDBRANCH  23  26
ENDBRANCH  17  23
TORSDOF 2
