MODEL 1
REMARK VINA RESULT:      -9.0      0.000      0.000
REMARK  3 active torsions:
REMARK  status: ('A' for Active; 'I' for Inactive)
REMARK    1  A    between atoms: C1_1  and  N3_15 
REMARK    2  A    between atoms: C12_16  and  C13_17 
REMARK    3  A    between atoms: C14_18  and  O2_24 
ROOT
ATOM      1  C1   11 d         -10.311 208.369 113.946  0.00  0.00     0.150 A 
ATOM      2  C2   11 d         -11.106 207.979 112.887  0.00  0.00     0.297 A 
ATOM      3  N1   11 d         -12.276 207.496 113.359  0.00  0.00    -0.217 N 
ATOM      4  C3   11 d         -13.349 207.003 112.530  0.00  0.00     0.060 A 
ATOM      5  C4   11 d         -14.652 207.521 112.666  0.00  0.00     0.031 A 
ATOM      6  C5   11 d         -15.693 207.043 111.856  0.00  0.00     0.002 A 
ATOM      7  C6   11 d         -15.441 206.047 110.902  0.00  0.00     0.000 A 
ATOM      8  C7   11 d         -14.145 205.529 110.756  0.00  0.00     0.002 A 
ATOM      9  C8   11 d         -13.102 206.007 111.565  0.00  0.00     0.031 A 
ATOM     10  N2   11 d         -12.265 207.577 114.672  0.00  0.00    -0.289 N 
ATOM     11  C9   11 d         -11.066 208.082 115.087  0.00  0.00     0.059 A 
ATOM     12  C10  11 d         -10.755 208.536 116.487  0.00  0.00     0.072 C 
ATOM     13  C11  11 d         -13.309 207.062 115.567  0.00  0.00     0.178 C 
ATOM     14  O1   11 d         -10.798 208.082 111.671  0.00  0.00    -0.264 OA
ENDROOT
BRANCH   1  15
ATOM     15  N3   11 d          -9.006 208.987 113.821  0.00  0.00    -0.252 NA
ATOM     16  C12  11 d          -7.951 208.226 113.657  0.00  0.00     0.131 C 
BRANCH  16  17
ATOM     17  C13  11 d          -6.579 208.797 113.558  0.00  0.00     0.016 A 
ATOM     18  C14  11 d          -6.124 209.889 114.345  0.00  0.00     0.077 A 
ATOM     19  C15  11 d          -4.822 210.384 114.172  0.00  0.00     0.039 A 
ATOM     20  C16  11 d          -3.949 209.786 113.254  0.00  0.00     0.026 A 
ATOM     21  C17  11 d          -4.380 208.697 112.487  0.00  0.00     0.035 A 
ATOM     22 Cl1   11 d          -3.273 207.938 111.319  0.00  0.00    -0.084 Cl
ATOM     23  C18  11 d          -5.688 208.208 112.636  0.00  0.00     0.039 A 
BRANCH  18  24
ATOM     24  O2   11 d          -6.980 210.588 115.227  0.00  0.00    -0.360 OA
ATOM     25  H16  11 d          -7.448 209.859 115.794  0.00  0.00     0.217 HD
ENDBRANCH  18  24
ENDBRANCH  16  17
ENDBRANCH   1  15
TORSDOF 3
ENDMDL
MODEL 2
REMARK VINA RESULT:      -8.5      3.094      4.334
REMARK  3 active torsions:
REMARK  status: ('A' for Active; 'I' for Inactive)
REMARK    1  A    between atoms: C1_1  and  N3_15 
REMARK    2  A    between atoms: C12_16  and  C13_17 
REMARK    3  A    between atoms: C14_18  and  O2_24 
ROOT
ATOM      1  C1   11 d         -10.849 208.229 114.180  0.00  0.00     0.150 A 
ATOM      2  C2   11 d         -12.128 207.725 114.064  0.00  0.00     0.297 A 
ATOM      3  N1   11 d         -12.357 207.373 112.780  0.00  0.00    -0.217 N 
ATOM      4  C3   11 d         -13.592 206.803 112.297  0.00  0.00     0.060 A 
ATOM      5  C4   11 d         -13.587 205.586 111.588  0.00  0.00     0.031 A 
ATOM      6  C5   11 d         -14.790 205.032 111.123  0.00  0.00     0.002 A 
ATOM      7  C6   11 d         -16.005 205.687 111.366  0.00  0.00     0.000 A 
ATOM      8  C7   11 d         -16.020 206.897 112.076  0.00  0.00     0.002 A 
ATOM      9  C8   11 d         -14.818 207.452 112.543  0.00  0.00     0.031 A 
ATOM     10  N2   11 d         -11.272 207.617 112.077  0.00  0.00    -0.289 N 
ATOM     11  C9   11 d         -10.321 208.171 112.886  0.00  0.00     0.059 A 
ATOM     12  C10  11 d          -8.880 208.378 112.512  0.00  0.00     0.072 C 
ATOM     13  C11  11 d         -11.146 207.467 110.622  0.00  0.00     0.178 C 
ATOM     14  O1   11 d         -12.945 207.591 115.013  0.00  0.00    -0.264 OA
ENDROOT
BRANCH   1  15
ATOM     15  N3   11 d         -10.234 208.656 115.421  0.00  0.00    -0.252 NA
ATOM     16  C12  11 d          -9.607 207.772 116.159  0.00  0.00     0.131 C 
BRANCH  16  17
ATOM     17  C13  11 d          -8.984 208.138 117.462  0.00  0.00     0.016 A 
ATOM     18  C14  11 d          -9.731 208.481 118.620  0.00  0.00     0.077 A 
ATOM     19  C15  11 d          -9.066 208.839 119.804  0.00  0.00     0.039 A 
ATOM     20  C16  11 d          -7.667 208.825 119.866  0.00  0.00     0.026 A 
ATOM     21  C17  11 d          -6.921 208.469 118.736  0.00  0.00     0.035 A 
ATOM     22 Cl1   11 d          -5.143 208.453 118.813  0.00  0.00    -0.084 Cl
ATOM     23  C18  11 d          -7.575 208.132 117.541  0.00  0.00     0.039 A 
BRANCH  18  24
ATOM     24  O2   11 d         -11.141 208.594 118.600  0.00  0.00    -0.360 OA
ATOM     25  H16  11 d         -11.380 208.896 117.639  0.00  0.00     0.217 HD
ENDBRANCH  18  24
ENDBRANCH  16  17
ENDBRANCH   1  15
TORSDOF 3
ENDMDL
MODEL 3
REMARK VINA RESULT:      -8.5      3.352      8.065
REMARK  3 active torsions:
REMARK  status: ('A' for Active; 'I' for Inactive)
REMARK    1  A    between atoms: C1_1  and  N3_15 
REMARK    2  A    between atoms: C12_16  and  C13_17 
REMARK    3  A    between atoms: C14_18  and  O2_24 
ROOT
ATOM      1  C1   11 d         -10.762 208.347 114.649  0.00  0.00     0.150 A 
ATOM      2  C2   11 d          -9.462 208.696 114.348  0.00  0.00     0.297 A 
ATOM      3  N1   11 d          -8.719 208.674 115.476  0.00  0.00    -0.217 N 
ATOM      4  C3   11 d          -7.310 208.982 115.532  0.00  0.00     0.060 A 
ATOM      5  C4   11 d          -6.402 208.070 116.102  0.00  0.00     0.031 A 
ATOM      6  C5   11 d          -5.032 208.370 116.151  0.00  0.00     0.002 A 
ATOM      7  C6   11 d          -4.559 209.581 115.629  0.00  0.00     0.000 A 
ATOM      8  C7   11 d          -5.455 210.495 115.054  0.00  0.00     0.002 A 
ATOM      9  C8   11 d          -6.826 210.196 115.003  0.00  0.00     0.031 A 
ATOM     10  N2   11 d          -9.488 208.309 116.479  0.00  0.00    -0.289 N 
ATOM     11  C9   11 d         -10.764 208.122 116.029  0.00  0.00     0.059 A 
ATOM     12  C10  11 d         -11.875 207.486 116.818  0.00  0.00     0.072 C 
ATOM     13  C11  11 d          -9.084 208.262 117.890  0.00  0.00     0.178 C 
ATOM     14  O1   11 d          -9.030 208.968 113.196  0.00  0.00    -0.264 OA
ENDROOT
BRANCH   1  15
ATOM     15  N3   11 d         -11.831 208.207 113.679  0.00  0.00    -0.252 NA
ATOM     16  C12  11 d         -12.192 207.007 113.295  0.00  0.00     0.131 C 
BRANCH  16  17
ATOM     17  C13  11 d         -13.258 206.797 112.277  0.00  0.00     0.016 A 
ATOM     18  C14  11 d         -13.040 206.909 110.878  0.00  0.00     0.077 A 
ATOM     19  C15  11 d         -14.106 206.720 109.983  0.00  0.00     0.039 A 
ATOM     20  C16  11 d         -15.380 206.382 110.457  0.00  0.00     0.026 A 
ATOM     21  C17  11 d         -15.602 206.250 111.832  0.00  0.00     0.035 A 
ATOM     22 Cl1   11 d         -17.221 205.823 112.435  0.00  0.00    -0.084 Cl
ATOM     23  C18  11 d         -14.549 206.459 112.737  0.00  0.00     0.039 A 
BRANCH  18  24
ATOM     24  O2   11 d         -11.800 207.327 110.341  0.00  0.00    -0.360 OA
ATOM     25  H16  11 d         -11.588 206.658 109.580  0.00  0.00     0.217 HD
ENDBRANCH  18  24
ENDBRANCH  16  17
ENDBRANCH   1  15
TORSDOF 3
ENDMDL
MODEL 4
REMARK VINA RESULT:      -8.4      3.462      8.281
REMARK  3 active torsions:
REMARK  status: ('A' for Active; 'I' for Inactive)
REMARK    1  A    between atoms: C1_1  and  N3_15 
REMARK    2  A    between atoms: C12_16  and  C13_17 
REMARK    3  A    between atoms: C14_18  and  O2_24 
ROOT
ATOM      1  C1   11 d          -8.821 208.494 113.454  0.00  0.00     0.150 A 
ATOM      2  C2   11 d          -8.627 208.782 114.789  0.00  0.00     0.297 A 
ATOM      3  N1   11 d          -7.303 208.879 115.040  0.00  0.00    -0.217 N 
ATOM      4  C3   11 d          -6.736 209.176 116.333  0.00  0.00     0.060 A 
ATOM      5  C4   11 d          -5.834 210.245 116.489  0.00  0.00     0.031 A 
ATOM      6  C5   11 d          -5.287 210.534 117.749  0.00  0.00     0.002 A 
ATOM      7  C6   11 d          -5.640 209.760 118.862  0.00  0.00     0.000 A 
ATOM      8  C7   11 d          -6.543 208.696 118.718  0.00  0.00     0.002 A 
ATOM      9  C8   11 d          -7.092 208.406 117.459  0.00  0.00     0.031 A 
ATOM     10  N2   11 d          -6.647 208.682 113.917  0.00  0.00    -0.289 N 
ATOM     11  C9   11 d          -7.534 208.413 112.913  0.00  0.00     0.059 A 
ATOM     12  C10  11 d          -7.195 208.358 111.449  0.00  0.00     0.072 C 
ATOM     13  C11  11 d          -5.187 208.604 113.784  0.00  0.00     0.178 C 
ATOM     14  O1   11 d          -9.543 208.952 115.637  0.00  0.00    -0.264 OA
ENDROOT
BRANCH   1  15
ATOM     15  N3   11 d         -10.114 208.374 112.809  0.00  0.00    -0.252 NA
ATOM     16  C12  11 d         -10.785 207.254 112.928  0.00  0.00     0.131 C 
BRANCH  16  17
ATOM     17  C13  11 d         -12.101 207.054 112.261  0.00  0.00     0.016 A 
ATOM     18  C14  11 d         -12.281 207.084 110.853  0.00  0.00     0.077 A 
ATOM     19  C15  11 d         -13.561 206.911 110.304  0.00  0.00     0.039 A 
ATOM     20  C16  11 d         -14.664 206.670 111.133  0.00  0.00     0.026 A 
ATOM     21  C17  11 d         -14.496 206.619 112.522  0.00  0.00     0.035 A 
ATOM     22 Cl1   11 d         -15.896 206.315 113.577  0.00  0.00    -0.084 Cl
ATOM     23  C18  11 d         -13.224 206.813 113.083  0.00  0.00     0.039 A 
BRANCH  18  24
ATOM     24  O2   11 d         -11.226 207.404 109.967  0.00  0.00    -0.360 OA
ATOM     25  H16  11 d         -11.666 207.926 109.189  0.00  0.00     0.217 HD
ENDBRANCH  18  24
ENDBRANCH  16  17
ENDBRANCH   1  15
TORSDOF 3
ENDMDL
MODEL 5
REMARK VINA RESULT:      -8.4      5.363      8.198
REMARK  3 active torsions:
REMARK  status: ('A' for Active; 'I' for Inactive)
REMARK    1  A    between atoms: C1_1  and  N3_15 
REMARK    2  A    between atoms: C12_16  and  C13_17 
REMARK    3  A    between atoms: C14_18  and  O2_24 
ROOT
ATOM      1  C1   11 d         -13.477 206.284 116.501  0.00  0.00     0.150 A 
ATOM      2  C2   11 d         -14.284 206.062 115.404  0.00  0.00     0.297 A 
ATOM      3  N1   11 d         -13.718 206.618 114.311  0.00  0.00    -0.217 N 
ATOM      4  C3   11 d         -14.286 206.574 112.985  0.00  0.00     0.060 A 
ATOM      5  C4   11 d         -13.533 206.083 111.902  0.00  0.00     0.031 A 
ATOM      6  C5   11 d         -14.089 206.037 110.614  0.00  0.00     0.002 A 
ATOM      7  C6   11 d         -15.403 206.478 110.400  0.00  0.00     0.000 A 
ATOM      8  C7   11 d         -16.163 206.964 111.475  0.00  0.00     0.002 A 
ATOM      9  C8   11 d         -15.608 207.010 112.764  0.00  0.00     0.031 A 
ATOM     10  N2   11 d         -12.577 207.170 114.663  0.00  0.00    -0.289 N 
ATOM     11  C9   11 d         -12.394 207.018 116.008  0.00  0.00     0.059 A 
ATOM     12  C10  11 d         -11.116 207.307 116.746  0.00  0.00     0.072 C 
ATOM     13  C11  11 d         -11.707 207.966 113.787  0.00  0.00     0.178 C 
ATOM     14  O1   11 d         -15.366 205.418 115.417  0.00  0.00    -0.264 OA
ENDROOT
BRANCH   1  15
ATOM     15  N3   11 d         -13.735 205.783 117.837  0.00  0.00    -0.252 NA
ATOM     16  C12  11 d         -14.160 206.612 118.758  0.00  0.00     0.131 C 
BRANCH  16  17
ATOM     17  C13  11 d         -14.410 206.170 120.158  0.00  0.00     0.016 A 
ATOM     18  C14  11 d         -15.543 206.566 120.917  0.00  0.00     0.077 A 
ATOM     19  C15  11 d         -15.692 206.124 122.241  0.00  0.00     0.039 A 
ATOM     20  C16  11 d         -14.748 205.261 122.813  0.00  0.00     0.026 A 
ATOM     21  C17  11 d         -13.637 204.848 122.068  0.00  0.00     0.035 A 
ATOM     22 Cl1   11 d         -12.436 203.754 122.794  0.00  0.00    -0.084 Cl
ATOM     23  C18  11 d         -13.467 205.302 120.751  0.00  0.00     0.039 A 
BRANCH  18  24
ATOM     24  O2   11 d         -16.487 207.499 120.428  0.00  0.00    -0.360 OA
ATOM     25  H16  11 d         -17.399 207.012 120.458  0.00  0.00     0.217 HD
ENDBRANCH  18  24
ENDBRANCH  16  17
ENDBRANCH   1  15
TORSDOF 3
ENDMDL
MODEL 6
REMARK VINA RESULT:      -8.4      3.169      8.079
REMARK  3 active torsions:
REMARK  status: ('A' for Active; 'I' for Inactive)
REMARK    1  A    between atoms: C1_1  and  N3_15 
REMARK    2  A    between atoms: C12_16  and  C13_17 
REMARK    3  A    between atoms: C14_18  and  O2_24 
ROOT
ATOM      1  C1   11 d          -9.166 208.583 113.516  0.00  0.00     0.150 A 
ATOM      2  C2   11 d          -7.877 208.409 113.055  0.00  0.00     0.297 A 
ATOM      3  N1   11 d          -7.013 208.518 114.089  0.00  0.00    -0.217 N 
ATOM      4  C3   11 d          -5.580 208.386 113.973  0.00  0.00     0.060 A 
ATOM      5  C4   11 d          -4.881 207.468 114.780  0.00  0.00     0.031 A 
ATOM      6  C5   11 d          -3.489 207.338 114.663  0.00  0.00     0.002 A 
ATOM      7  C6   11 d          -2.785 208.121 113.736  0.00  0.00     0.000 A 
ATOM      8  C7   11 d          -3.475 209.034 112.924  0.00  0.00     0.002 A 
ATOM      9  C8   11 d          -4.868 209.165 113.039  0.00  0.00     0.031 A 
ATOM     10  N2   11 d          -7.699 208.738 115.189  0.00  0.00    -0.289 N 
ATOM     11  C9   11 d          -9.029 208.814 114.888  0.00  0.00     0.059 A 
ATOM     12  C10  11 d         -10.146 208.827 115.895  0.00  0.00     0.072 C 
ATOM     13  C11  11 d          -7.125 209.016 116.512  0.00  0.00     0.178 C 
ATOM     14  O1   11 d          -7.558 208.161 111.862  0.00  0.00    -0.264 OA
ENDROOT
BRANCH   1  15
ATOM     15  N3   11 d         -10.360 208.477 112.701  0.00  0.00    -0.252 NA
ATOM     16  C12  11 d         -10.973 207.322 112.614  0.00  0.00     0.131 C 
BRANCH  16  17
ATOM     17  C13  11 d         -12.184 207.137 111.767  0.00  0.00     0.016 A 
ATOM     18  C14  11 d         -12.200 207.353 110.363  0.00  0.00     0.077 A 
ATOM     19  C15  11 d         -13.391 207.181 109.639  0.00  0.00     0.039 A 
ATOM     20  C16  11 d         -14.561 206.761 110.284  0.00  0.00     0.026 A 
ATOM     21  C17  11 d         -14.552 206.527 111.664  0.00  0.00     0.035 A 
ATOM     22 Cl1   11 d         -16.039 205.995 112.486  0.00  0.00    -0.084 Cl
ATOM     23  C18  11 d         -13.373 206.717 112.401  0.00  0.00     0.039 A 
BRANCH  18  24
ATOM     24  O2   11 d         -11.076 207.856 109.667  0.00  0.00    -0.360 OA
ATOM     25  H16  11 d         -10.971 207.249 108.835  0.00  0.00     0.217 HD
ENDBRANCH  18  24
ENDBRANCH  16  17
ENDBRANCH   1  15
TORSDOF 3
ENDMDL
MODEL 7
REMARK VINA RESULT:      -8.4      3.163      8.087
REMARK  3 active torsions:
REMARK  status: ('A' for Active; 'I' for Inactive)
REMARK    1  A    between atoms: C1_1  and  N3_15 
REMARK    2  A    between atoms: C12_16  and  C13_17 
REMARK    3  A    between atoms: C14_18  and  O2_24 
ROOT
ATOM      1  C1   11 d         -10.908 208.343 115.420  0.00  0.00     0.150 A 
ATOM      2  C2   11 d          -9.702 208.689 114.844  0.00  0.00     0.297 A 
ATOM      3  N1   11 d          -8.730 208.649 115.782  0.00  0.00    -0.217 N 
ATOM      4  C3   11 d          -7.341 208.948 115.530  0.00  0.00     0.060 A 
ATOM      5  C4   11 d          -6.337 208.023 115.877  0.00  0.00     0.031 A 
ATOM      6  C5   11 d          -4.987 208.314 115.628  0.00  0.00     0.002 A 
ATOM      7  C6   11 d          -4.630 209.529 115.026  0.00  0.00     0.000 A 
ATOM      8  C7   11 d          -5.624 210.455 114.672  0.00  0.00     0.002 A 
ATOM      9  C8   11 d          -6.975 210.165 114.920  0.00  0.00     0.031 A 
ATOM     10  N2   11 d          -9.263 208.277 116.925  0.00  0.00    -0.289 N 
ATOM     11  C9   11 d         -10.608 208.102 116.765  0.00  0.00     0.059 A 
ATOM     12  C10  11 d         -11.525 207.464 117.772  0.00  0.00     0.072 C 
ATOM     13  C11  11 d          -8.560 208.211 118.213  0.00  0.00     0.178 C 
ATOM     14  O1   11 d          -9.532 208.972 113.629  0.00  0.00    -0.264 OA
ENDROOT
BRANCH   1  15
ATOM     15  N3   11 d         -12.164 208.222 114.708  0.00  0.00    -0.252 NA
ATOM     16  C12  11 d         -12.562 207.037 114.312  0.00  0.00     0.131 C 
BRANCH  16  17
ATOM     17  C13  11 d         -13.824 206.849 113.544  0.00  0.00     0.016 A 
ATOM     18  C14  11 d         -15.038 206.397 114.128  0.00  0.00     0.077 A 
ATOM     19  C15  11 d         -16.179 206.221 113.329  0.00  0.00     0.039 A 
ATOM     20  C16  11 d         -16.143 206.523 111.962  0.00  0.00     0.026 A 
ATOM     21  C17  11 d         -14.958 206.987 111.379  0.00  0.00     0.035 A 
ATOM     22 Cl1   11 d         -14.911 207.370 109.642  0.00  0.00    -0.084 Cl
ATOM     23  C18  11 d         -13.805 207.146 112.164  0.00  0.00     0.039 A 
BRANCH  18  24
ATOM     24  O2   11 d         -15.117 205.997 115.482  0.00  0.00    -0.360 OA
ATOM     25  H16  11 d         -15.653 206.742 115.960  0.00  0.00     0.217 HD
ENDBRANCH  18  24
ENDBRANCH  16  17
ENDBRANCH   1  15
TORSDOF 3
ENDMDL
MODEL 8
REMARK VINA RESULT:      -8.3      1.861      2.137
REMARK  3 active torsions:
REMARK  status: ('A' for Active; 'I' for Inactive)
REMARK    1  A    between atoms: C1_1  and  N3_15 
REMARK    2  A    between atoms: C12_16  and  C13_17 
REMARK    3  A    between atoms: C14_18  and  O2_24 
ROOT
ATOM      1  C1   11 d         -11.071 208.018 114.748  0.00  0.00     0.150 A 
ATOM      2  C2   11 d         -11.740 207.799 113.561  0.00  0.00     0.297 A 
ATOM      3  N1   11 d         -12.920 207.192 113.817  0.00  0.00    -0.217 N 
ATOM      4  C3   11 d         -13.881 206.817 112.807  0.00  0.00     0.060 A 
ATOM      5  C4   11 d         -15.218 207.251 112.899  0.00  0.00     0.031 A 
ATOM      6  C5   11 d         -16.150 206.889 111.914  0.00  0.00     0.002 A 
ATOM      7  C6   11 d         -15.752 206.096 110.828  0.00  0.00     0.000 A 
ATOM      8  C7   11 d         -14.421 205.664 110.726  0.00  0.00     0.002 A 
ATOM      9  C8   11 d         -13.487 206.025 111.710  0.00  0.00     0.031 A 
ATOM     10  N2   11 d         -13.037 207.031 115.117  0.00  0.00    -0.289 N 
ATOM     11  C9   11 d         -11.913 207.498 115.737  0.00  0.00     0.059 A 
ATOM     12  C10  11 d         -11.762 207.698 117.219  0.00  0.00     0.072 C 
ATOM     13  C11  11 d         -14.130 206.320 115.794  0.00  0.00     0.178 C 
ATOM     14  O1   11 d         -11.326 208.135 112.421  0.00  0.00    -0.264 OA
ENDROOT
BRANCH   1  15
ATOM     15  N3   11 d          -9.798 208.699 114.871  0.00  0.00    -0.252 NA
ATOM     16  C12  11 d          -8.767 208.253 114.196  0.00  0.00     0.131 C 
BRANCH  16  17
ATOM     17  C13  11 d          -7.423 208.886 114.305  0.00  0.00     0.016 A 
ATOM     18  C14  11 d          -6.554 209.078 113.198  0.00  0.00     0.077 A 
ATOM     19  C15  11 d          -5.291 209.660 113.390  0.00  0.00     0.039 A 
ATOM     20  C16  11 d          -4.892 210.091 114.662  0.00  0.00     0.026 A 
ATOM     21  C17  11 d          -5.749 209.925 115.756  0.00  0.00     0.035 A 
ATOM     22 Cl1   11 d          -5.243 210.470 117.373  0.00  0.00    -0.084 Cl
ATOM     23  C18  11 d          -7.005 209.323 115.580  0.00  0.00     0.039 A 
BRANCH  18  24
ATOM     24  O2   11 d          -6.862 208.591 111.907  0.00  0.00    -0.360 OA
ATOM     25  H16  11 d          -6.549 209.328 111.251  0.00  0.00     0.217 HD
ENDBRANCH  18  24
ENDBRANCH  16  17
ENDBRANCH   1  15
TORSDOF 3
ENDMDL
MODEL 9
REMARK VINA RESULT:      -8.0      6.126      8.801
REMARK  3 active torsions:
REMARK  status: ('A' for Active; 'I' for Inactive)
REMARK    1  A    between atoms: C1_1  and  N3_15 
REMARK    2  A    between atoms: C12_16  and  C13_17 
REMARK    3  A    between atoms: C14_18  and  O2_24 
ROOT
ATOM      1  C1   11 d         -13.648 205.944 117.070  0.00  0.00     0.150 A 
ATOM      2  C2   11 d         -14.393 205.548 115.978  0.00  0.00     0.297 A 
ATOM      3  N1   11 d         -14.008 206.254 114.893  0.00  0.00    -0.217 N 
ATOM      4  C3   11 d         -14.572 206.096 113.574  0.00  0.00     0.060 A 
ATOM      5  C4   11 d         -13.740 205.836 112.468  0.00  0.00     0.031 A 
ATOM      6  C5   11 d         -14.291 205.679 111.187  0.00  0.00     0.002 A 
ATOM      7  C6   11 d         -15.677 205.775 111.002  0.00  0.00     0.000 A 
ATOM      8  C7   11 d         -16.515 206.029 112.099  0.00  0.00     0.002 A 
ATOM      9  C8   11 d         -15.965 206.185 113.381  0.00  0.00     0.031 A 
ATOM     10  N2   11 d         -13.038 207.070 115.244  0.00  0.00    -0.289 N 
ATOM     11  C9   11 d         -12.796 206.939 116.582  0.00  0.00     0.059 A 
ATOM     12  C10  11 d         -11.620 207.528 117.310  0.00  0.00     0.072 C 
ATOM     13  C11  11 d         -12.416 208.079 114.377  0.00  0.00     0.178 C 
ATOM     14  O1   11 d         -15.276 204.650 115.988  0.00  0.00    -0.264 OA
ENDROOT
BRANCH   1  15
ATOM     15  N3   11 d         -13.744 205.365 118.396  0.00  0.00    -0.252 NA
ATOM     16  C12  11 d         -14.427 205.995 119.319  0.00  0.00     0.131 C 
BRANCH  16  17
ATOM     17  C13  11 d         -14.535 205.472 120.710  0.00  0.00     0.016 A 
ATOM     18  C14  11 d         -13.415 205.240 121.551  0.00  0.00     0.077 A 
ATOM     19  C15  11 d         -13.600 204.721 122.842  0.00  0.00     0.039 A 
ATOM     20  C16  11 d         -14.889 204.464 123.326  0.00  0.00     0.026 A 
ATOM     21  C17  11 d         -16.003 204.707 122.513  0.00  0.00     0.035 A 
ATOM     22 Cl1   11 d         -17.641 204.379 123.127  0.00  0.00    -0.084 Cl
ATOM     23  C18  11 d         -15.827 205.205 121.213  0.00  0.00     0.039 A 
BRANCH  18  24
ATOM     24  O2   11 d         -12.086 205.400 121.093  0.00  0.00    -0.360 OA
ATOM     25  H16  11 d         -11.721 204.440 120.963  0.00  0.00     0.217 HD
ENDBRANCH  18  24
ENDBRANCH  16  17
ENDBRANCH   1  15
TORSDOF 3
ENDMDL
MODEL 10
REMARK VINA RESULT:      -8.0      4.037      8.481
REMARK  3 active torsions:
REMARK  status: ('A' for Active; 'I' for Inactive)
REMARK    1  A    between atoms: C1_1  and  N3_15 
REMARK    2  A    between atoms: C12_16  and  C13_17 
REMARK    3  A    between atoms: C14_18  and  O2_24 
ROOT
ATOM      1  C1   11 d         -11.358 207.902 115.887  0.00  0.00     0.150 A 
ATOM      2  C2   11 d         -11.228 207.612 117.229  0.00  0.00     0.297 A 
ATOM      3  N1   11 d          -9.959 207.860 117.621  0.00  0.00    -0.217 N 
ATOM      4  C3   11 d          -9.468 207.672 118.965  0.00  0.00     0.060 A 
ATOM      5  C4   11 d          -8.830 208.727 119.645  0.00  0.00     0.031 A 
ATOM      6  C5   11 d          -8.357 208.544 120.954  0.00  0.00     0.002 A 
ATOM      7  C6   11 d          -8.522 207.308 121.594  0.00  0.00     0.000 A 
ATOM      8  C7   11 d          -9.161 206.253 120.926  0.00  0.00     0.002 A 
ATOM      9  C8   11 d          -9.636 206.434 119.617  0.00  0.00     0.031 A 
ATOM     10  N2   11 d          -9.281 208.310 116.588  0.00  0.00    -0.289 N 
ATOM     11  C9   11 d         -10.088 208.330 115.487  0.00  0.00     0.059 A 
ATOM     12  C10  11 d          -9.751 208.989 114.178  0.00  0.00     0.072 C 
ATOM     13  C11  11 d          -7.841 208.600 116.573  0.00  0.00     0.178 C 
ATOM     14  O1   11 d         -12.155 207.204 117.978  0.00  0.00    -0.264 OA
ENDROOT
BRANCH   1  15
ATOM     15  N3   11 d         -12.593 207.812 115.133  0.00  0.00    -0.252 NA
ATOM     16  C12  11 d         -12.759 206.817 114.297  0.00  0.00     0.131 C 
BRANCH  16  17
ATOM     17  C13  11 d         -13.989 206.686 113.467  0.00  0.00     0.016 A 
ATOM     18  C14  11 d         -15.236 206.234 113.976  0.00  0.00     0.077 A 
ATOM     19  C15  11 d         -16.342 206.115 113.120  0.00  0.00     0.039 A 
ATOM     20  C16  11 d         -16.240 206.474 111.770  0.00  0.00     0.026 A 
ATOM     21  C17  11 d         -15.021 206.940 111.262  0.00  0.00     0.035 A 
ATOM     22 Cl1   11 d         -14.888 207.395 109.546  0.00  0.00    -0.084 Cl
ATOM     23  C18  11 d         -13.902 207.041 112.103  0.00  0.00     0.039 A 
BRANCH  18  24
ATOM     24  O2   11 d         -15.384 205.778 115.306  0.00  0.00    -0.360 OA
ATOM     25  H16  11 d         -15.991 206.475 115.772  0.00  0.00     0.217 HD
ENDBRANCH  18  24
ENDBRANCH  16  17
ENDBRANCH   1  15
TORSDOF 3
ENDMDL
