MODEL 1
REMARK VINA RESULT:      -9.5      0.000      0.000
REMARK  5 active torsions:
REMARK  status: ('A' for Active; 'I' for Inactive)
REMARK    1  A    between atoms: C16_18  and  C17_19 
REMARK    2  A    between atoms: C17_19  and  O4_21 
REMARK    3  A    between atoms: N1_25  and  C22_28 
REMARK    4  A    between atoms: C22_28  and  C23_29 
REMARK    5  A    between atoms: C23_29  and  C24_30 
ROOT
ATOM      1  C1   11 d         -11.157 206.909 118.438  0.00  0.00     0.156 A 
ATOM      2  C2   11 d         -12.482 207.196 118.180  0.00  0.00     0.060 A 
ATOM      3  C3   11 d         -13.456 206.730 119.076  0.00  0.00     0.196 A 
ATOM      4  C4   11 d         -13.043 205.950 120.184  0.00  0.00     0.049 A 
ATOM      5  C5   11 d         -11.654 205.685 120.334  0.00  0.00     0.091 A 
ATOM      6  O1   11 d         -10.778 206.177 119.471  0.00  0.00    -0.303 OA
ATOM      7  C6   11 d         -11.206 204.890 121.395  0.00  0.00     0.045 A 
ATOM      8  C7   11 d         -12.115 204.331 122.316  0.00  0.00    -0.053 A 
ATOM      9  C8   11 d         -13.496 204.650 122.214  0.00  0.00    -0.055 A 
ATOM     10  C9   11 d         -13.949 205.428 121.128  0.00  0.00     0.025 A 
ATOM     11  C10  11 d         -14.524 204.037 123.135  0.00  0.00     0.049 C 
ATOM     12  C11  11 d         -11.559 203.547 123.481  0.00  0.00     0.049 C 
ATOM     13  O2   11 d         -14.668 207.005 118.887  0.00  0.00    -0.287 OA
ATOM     14  C12  11 d         -12.647 207.998 116.906  0.00  0.00     0.161 A 
ATOM     15  C13  11 d         -13.444 207.314 115.792  0.00  0.00    -0.030 A 
ATOM     16  C14  11 d         -13.698 208.021 114.597  0.00  0.00     0.011 A 
ATOM     17  C15  11 d         -14.380 207.422 113.528  0.00  0.00     0.018 A 
ATOM     18  C16  11 d         -14.832 206.092 113.621  0.00  0.00     0.039 A 
ATOM     19  C19  11 d         -14.624 205.393 114.824  0.00  0.00     0.018 A 
ATOM     20  C20  11 d         -13.949 205.996 115.896  0.00  0.00     0.011 A 
ATOM     21  N1   11 d         -11.205 208.245 116.509  0.00  0.00    -0.333 N 
ATOM     22  C21  11 d         -10.360 207.511 117.389  0.00  0.00     0.279 A 
ATOM     23  O5   11 d          -9.090 207.384 117.276  0.00  0.00    -0.265 OA
ENDROOT
BRANCH  21  24
ATOM     24  C22  11 d         -10.790 209.133 115.369  0.00  0.00     0.132 C 
BRANCH  24  25
ATOM     25  C23  11 d          -9.783 208.543 114.370  0.00  0.00     0.058 C 
BRANCH  25  26
ATOM     26  C24  11 d         -10.329 208.077 113.032  0.00  0.00    -0.057 A 
ATOM     27  C25  11 d          -9.936 208.791 111.878  0.00  0.00     0.007 A 
ATOM     28  C26  11 d         -10.352 208.384 110.602  0.00  0.00     0.001 A 
ATOM     29  C27  11 d         -11.153 207.244 110.457  0.00  0.00     0.000 A 
ATOM     30  C28  11 d         -11.530 206.507 111.586  0.00  0.00     0.001 A 
ATOM     31  C29  11 d         -11.115 206.911 112.864  0.00  0.00     0.007 A 
ENDBRANCH  25  26
ENDBRANCH  24  25
ENDBRANCH  21  24
BRANCH  18  32
ATOM     32  C17  11 d         -15.494 205.422 112.467  0.00  0.00     0.292 C 
ATOM     33  O3   11 d         -14.793 204.872 111.573  0.00  0.00    -0.259 OA
BRANCH  32  34
ATOM     34  O4   11 d         -16.923 205.449 112.360  0.00  0.00    -0.323 OA
ATOM     35  C18  11 d         -17.430 206.562 111.580  0.00  0.00     0.213 C 
ENDBRANCH  32  34
ENDBRANCH  18  32
TORSDOF 5
ENDMDL
MODEL 2
REMARK VINA RESULT:      -9.3      5.108      9.211
REMARK  5 active torsions:
REMARK  status: ('A' for Active; 'I' for Inactive)
REMARK    1  A    between atoms: C16_18  and  C17_19 
REMARK    2  A    between atoms: C17_19  and  O4_21 
REMARK    3  A    between atoms: N1_25  and  C22_28 
REMARK    4  A    between atoms: C22_28  and  C23_29 
REMARK    5  A    between atoms: C23_29  and  C24_30 
ROOT
ATOM      1  C1   11 d          -8.883 208.406 115.421  0.00  0.00     0.156 A 
ATOM      2  C2   11 d          -8.456 209.108 114.314  0.00  0.00     0.060 A 
ATOM      3  C3   11 d          -9.211 209.026 113.135  0.00  0.00     0.196 A 
ATOM      4  C4   11 d         -10.356 208.193 113.116  0.00  0.00     0.049 A 
ATOM      5  C5   11 d         -10.685 207.485 114.305  0.00  0.00     0.091 A 
ATOM      6  O1   11 d          -9.951 207.626 115.398  0.00  0.00    -0.303 OA
ATOM      7  C6   11 d         -11.788 206.623 114.321  0.00  0.00     0.045 A 
ATOM      8  C7   11 d         -12.576 206.432 113.168  0.00  0.00    -0.053 A 
ATOM      9  C8   11 d         -12.295 207.190 111.999  0.00  0.00    -0.055 A 
ATOM     10  C9   11 d         -11.166 208.036 111.975  0.00  0.00     0.025 A 
ATOM     11  C10  11 d         -13.066 206.989 110.716  0.00  0.00     0.049 C 
ATOM     12  C11  11 d         -13.796 205.549 113.274  0.00  0.00     0.049 C 
ATOM     13  O2   11 d          -8.866 209.684 112.119  0.00  0.00    -0.287 OA
ATOM     14  C12  11 d          -7.179 209.875 114.592  0.00  0.00     0.161 A 
ATOM     15  C13  11 d          -5.964 209.458 113.761  0.00  0.00    -0.030 A 
ATOM     16  C14  11 d          -4.752 210.167 113.914  0.00  0.00     0.011 A 
ATOM     17  C15  11 d          -3.596 209.792 113.213  0.00  0.00     0.018 A 
ATOM     18  C16  11 d          -3.616 208.694 112.332  0.00  0.00     0.039 A 
ATOM     19  C19  11 d          -4.829 208.008 112.139  0.00  0.00     0.018 A 
ATOM     20  C20  11 d          -5.986 208.388 112.834  0.00  0.00     0.011 A 
ATOM     21  N1   11 d          -6.978 209.612 116.071  0.00  0.00    -0.333 N 
ATOM     22  C21  11 d          -7.955 208.669 116.502  0.00  0.00     0.279 A 
ATOM     23  O5   11 d          -8.010 208.122 117.658  0.00  0.00    -0.265 OA
ENDROOT
BRANCH  21  24
ATOM     24  C22  11 d          -5.913 210.271 116.902  0.00  0.00     0.132 C 
BRANCH  24  25
ATOM     25  C23  11 d          -4.937 209.335 117.634  0.00  0.00     0.058 C 
BRANCH  25  26
ATOM     26  C24  11 d          -4.148 208.356 116.782  0.00  0.00    -0.057 A 
ATOM     27  C25  11 d          -2.763 208.589 116.628  0.00  0.00     0.007 A 
ATOM     28  C26  11 d          -1.959 207.696 115.906  0.00  0.00     0.001 A 
ATOM     29  C27  11 d          -2.522 206.544 115.341  0.00  0.00     0.000 A 
ATOM     30  C28  11 d          -3.888 206.282 115.507  0.00  0.00     0.001 A 
ATOM     31  C29  11 d          -4.696 207.173 116.230  0.00  0.00     0.007 A 
ENDBRANCH  25  26
ENDBRANCH  24  25
ENDBRANCH  21  24
BRANCH  18  32
ATOM     32  C17  11 d          -2.378 208.243 111.637  0.00  0.00     0.292 C 
ATOM     33  O3   11 d          -1.381 207.862 112.312  0.00  0.00    -0.259 OA
BRANCH  32  34
ATOM     34  O4   11 d          -2.315 208.291 110.206  0.00  0.00    -0.323 OA
ATOM     35  C18  11 d          -2.102 209.623 109.674  0.00  0.00     0.213 C 
ENDBRANCH  32  34
ENDBRANCH  18  32
TORSDOF 5
ENDMDL
MODEL 3
REMARK VINA RESULT:      -9.2      6.399      9.913
REMARK  5 active torsions:
REMARK  status: ('A' for Active; 'I' for Inactive)
REMARK    1  A    between atoms: C16_18  and  C17_19 
REMARK    2  A    between atoms: C17_19  and  O4_21 
REMARK    3  A    between atoms: N1_25  and  C22_28 
REMARK    4  A    between atoms: C22_28  and  C23_29 
REMARK    5  A    between atoms: C23_29  and  C24_30 
ROOT
ATOM      1  C1   11 d          -5.818 209.505 115.389  0.00  0.00     0.156 A 
ATOM      2  C2   11 d          -4.851 208.624 114.952  0.00  0.00     0.060 A 
ATOM      3  C3   11 d          -3.746 208.376 115.779  0.00  0.00     0.196 A 
ATOM      4  C4   11 d          -3.647 209.071 117.009  0.00  0.00     0.049 A 
ATOM      5  C5   11 d          -4.684 209.985 117.345  0.00  0.00     0.091 A 
ATOM      6  O1   11 d          -5.718 210.155 116.536  0.00  0.00    -0.303 OA
ATOM      7  C6   11 d          -4.609 210.719 118.534  0.00  0.00     0.045 A 
ATOM      8  C7   11 d          -3.509 210.579 119.404  0.00  0.00    -0.053 A 
ATOM      9  C8   11 d          -2.506 209.616 119.110  0.00  0.00    -0.055 A 
ATOM     10  C9   11 d          -2.568 208.898 117.898  0.00  0.00     0.025 A 
ATOM     11  C10  11 d          -1.276 209.460 119.973  0.00  0.00     0.049 C 
ATOM     12  C11  11 d          -3.528 211.342 120.707  0.00  0.00     0.049 C 
ATOM     13  O2   11 d          -2.866 207.550 115.424  0.00  0.00    -0.287 OA
ATOM     14  C12  11 d          -5.178 208.062 113.583  0.00  0.00     0.161 A 
ATOM     15  C13  11 d          -4.182 208.405 112.473  0.00  0.00    -0.030 A 
ATOM     16  C14  11 d          -4.380 207.865 111.183  0.00  0.00     0.011 A 
ATOM     17  C15  11 d          -3.525 208.189 110.119  0.00  0.00     0.018 A 
ATOM     18  C16  11 d          -2.439 209.064 110.313  0.00  0.00     0.039 A 
ATOM     19  C19  11 d          -2.206 209.571 111.604  0.00  0.00     0.018 A 
ATOM     20  C20  11 d          -3.057 209.241 112.669  0.00  0.00     0.011 A 
ATOM     21  N1   11 d          -6.548 208.657 113.326  0.00  0.00    -0.333 N 
ATOM     22  C21  11 d          -6.850 209.572 114.374  0.00  0.00     0.279 A 
ATOM     23  O5   11 d          -7.867 210.349 114.422  0.00  0.00    -0.265 OA
ENDROOT
BRANCH  21  24
ATOM     24  C22  11 d          -7.409 208.300 112.146  0.00  0.00     0.132 C 
BRANCH  24  25
ATOM     25  C23  11 d          -8.718 209.089 111.988  0.00  0.00     0.058 C 
BRANCH  25  26
ATOM     26  C24  11 d          -9.991 208.283 111.793  0.00  0.00    -0.057 A 
ATOM     27  C25  11 d         -10.446 208.086 110.470  0.00  0.00     0.007 A 
ATOM     28  C26  11 d         -11.580 207.303 110.208  0.00  0.00     0.001 A 
ATOM     29  C27  11 d         -12.266 206.688 111.262  0.00  0.00     0.000 A 
ATOM     30  C28  11 d         -11.814 206.850 112.578  0.00  0.00     0.001 A 
ATOM     31  C29  11 d         -10.679 207.631 112.844  0.00  0.00     0.007 A 
ENDBRANCH  25  26
ENDBRANCH  24  25
ENDBRANCH  21  24
BRANCH  18  32
ATOM     32  C17  11 d          -1.567 209.470 109.176  0.00  0.00     0.292 C 
ATOM     33  O3   11 d          -0.522 208.810 108.918  0.00  0.00    -0.259 OA
BRANCH  32  34
ATOM     34  O4   11 d          -1.899 210.638 108.414  0.00  0.00    -0.323 OA
ATOM     35  C18  11 d          -2.788 210.374 107.298  0.00  0.00     0.213 C 
ENDBRANCH  32  34
ENDBRANCH  18  32
TORSDOF 5
ENDMDL
MODEL 4
REMARK VINA RESULT:      -9.1      3.013      5.037
REMARK  5 active torsions:
REMARK  status: ('A' for Active; 'I' for Inactive)
REMARK    1  A    between atoms: C16_18  and  C17_19 
REMARK    2  A    between atoms: C17_19  and  O4_21 
REMARK    3  A    between atoms: N1_25  and  C22_28 
REMARK    4  A    between atoms: C22_28  and  C23_29 
REMARK    5  A    between atoms: C23_29  and  C24_30 
ROOT
ATOM      1  C1   11 d          -9.329 208.235 115.763  0.00  0.00     0.156 A 
ATOM      2  C2   11 d         -10.366 208.280 116.671  0.00  0.00     0.060 A 
ATOM      3  C3   11 d         -10.059 208.368 118.037  0.00  0.00     0.196 A 
ATOM      4  C4   11 d          -8.699 208.367 118.430  0.00  0.00     0.049 A 
ATOM      5  C5   11 d          -7.710 208.281 117.412  0.00  0.00     0.091 A 
ATOM      6  O1   11 d          -8.061 208.230 116.136  0.00  0.00    -0.303 OA
ATOM      7  C6   11 d          -6.354 208.242 117.757  0.00  0.00     0.045 A 
ATOM      8  C7   11 d          -5.949 208.270 119.107  0.00  0.00    -0.053 A 
ATOM      9  C8   11 d          -6.928 208.427 120.125  0.00  0.00    -0.055 A 
ATOM     10  C9   11 d          -8.295 208.438 119.778  0.00  0.00     0.025 A 
ATOM     11  C10  11 d          -6.561 208.407 121.591  0.00  0.00     0.049 C 
ATOM     12  C11  11 d          -4.470 208.301 119.408  0.00  0.00     0.049 C 
ATOM     13  O2   11 d         -10.984 208.446 118.886  0.00  0.00    -0.287 OA
ATOM     14  C12  11 d         -11.717 208.215 115.986  0.00  0.00     0.161 A 
ATOM     15  C13  11 d         -12.574 206.994 116.330  0.00  0.00    -0.030 A 
ATOM     16  C14  11 d         -13.871 206.892 115.784  0.00  0.00     0.011 A 
ATOM     17  C15  11 d         -14.677 205.770 116.027  0.00  0.00     0.018 A 
ATOM     18  C16  11 d         -14.209 204.710 116.828  0.00  0.00     0.039 A 
ATOM     19  C19  11 d         -12.935 204.822 117.413  0.00  0.00     0.018 A 
ATOM     20  C20  11 d         -12.133 205.949 117.176  0.00  0.00     0.011 A 
ATOM     21  N1   11 d         -11.321 208.244 114.524  0.00  0.00    -0.333 N 
ATOM     22  C21  11 d          -9.903 208.166 114.435  0.00  0.00     0.279 A 
ATOM     23  O5   11 d          -9.225 208.042 113.355  0.00  0.00    -0.265 OA
ENDROOT
BRANCH  21  24
ATOM     24  C22  11 d         -12.306 208.346 113.392  0.00  0.00     0.132 C 
BRANCH  24  25
ATOM     25  C23  11 d         -12.417 207.124 112.467  0.00  0.00     0.058 C 
BRANCH  25  26
ATOM     26  C24  11 d         -13.817 206.639 112.129  0.00  0.00    -0.057 A 
ATOM     27  C25  11 d         -14.675 207.532 111.452  0.00  0.00     0.007 A 
ATOM     28  C26  11 d         -15.960 207.135 111.054  0.00  0.00     0.001 A 
ATOM     29  C27  11 d         -16.401 205.830 111.310  0.00  0.00     0.000 A 
ATOM     30  C28  11 d         -15.553 204.921 111.956  0.00  0.00     0.001 A 
ATOM     31  C29  11 d         -14.267 205.316 112.354  0.00  0.00     0.007 A 
ENDBRANCH  25  26
ENDBRANCH  24  25
ENDBRANCH  21  24
BRANCH  18  32
ATOM     32  C17  11 d         -15.027 203.483 117.034  0.00  0.00     0.292 C 
ATOM     33  O3   11 d         -14.477 202.422 117.440  0.00  0.00    -0.259 OA
BRANCH  32  34
ATOM     34  O4   11 d         -16.426 203.507 116.726  0.00  0.00    -0.323 OA
ATOM     35  C18  11 d         -17.244 202.749 117.654  0.00  0.00     0.213 C 
ENDBRANCH  32  34
ENDBRANCH  18  32
TORSDOF 5
ENDMDL
MODEL 5
REMARK VINA RESULT:      -9.0      4.352      7.777
REMARK  5 active torsions:
REMARK  status: ('A' for Active; 'I' for Inactive)
REMARK    1  A    between atoms: C16_18  and  C17_19 
REMARK    2  A    between atoms: C17_19  and  O4_21 
REMARK    3  A    between atoms: N1_25  and  C22_28 
REMARK    4  A    between atoms: C22_28  and  C23_29 
REMARK    5  A    between atoms: C23_29  and  C24_30 
ROOT
ATOM      1  C1   11 d          -6.050 208.619 113.668  0.00  0.00     0.156 A 
ATOM      2  C2   11 d          -6.573 209.267 114.768  0.00  0.00     0.060 A 
ATOM      3  C3   11 d          -5.751 209.454 115.889  0.00  0.00     0.196 A 
ATOM      4  C4   11 d          -4.433 208.935 115.862  0.00  0.00     0.049 A 
ATOM      5  C5   11 d          -4.009 208.252 114.689  0.00  0.00     0.091 A 
ATOM      6  O1   11 d          -4.821 208.132 113.650  0.00  0.00    -0.303 OA
ATOM      7  C6   11 d          -2.728 207.692 114.633  0.00  0.00     0.045 A 
ATOM      8  C7   11 d          -1.849 207.781 115.731  0.00  0.00    -0.053 A 
ATOM      9  C8   11 d          -2.240 208.523 116.878  0.00  0.00    -0.055 A 
ATOM     10  C9   11 d          -3.542 209.062 116.945  0.00  0.00     0.025 A 
ATOM     11  C10  11 d          -1.366 208.606 118.108  0.00  0.00     0.049 C 
ATOM     12  C11  11 d          -0.454 207.223 115.577  0.00  0.00     0.049 C 
ATOM     13  O2   11 d          -6.188 210.074 116.894  0.00  0.00    -0.287 OA
ATOM     14  C12  11 d          -8.016 209.672 114.549  0.00  0.00     0.161 A 
ATOM     15  C13  11 d          -9.034 209.024 115.491  0.00  0.00    -0.030 A 
ATOM     16  C14  11 d         -10.392 209.398 115.395  0.00  0.00     0.011 A 
ATOM     17  C15  11 d         -11.371 208.796 116.200  0.00  0.00     0.018 A 
ATOM     18  C16  11 d         -11.022 207.799 117.130  0.00  0.00     0.039 A 
ATOM     19  C19  11 d          -9.665 207.451 117.265  0.00  0.00     0.018 A 
ATOM     20  C20  11 d          -8.686 208.058 116.466  0.00  0.00     0.011 A 
ATOM     21  N1   11 d          -8.234 209.268 113.105  0.00  0.00    -0.333 N 
ATOM     22  C21  11 d          -7.079 208.570 112.650  0.00  0.00     0.279 A 
ATOM     23  O5   11 d          -6.959 207.977 111.521  0.00  0.00    -0.265 OA
ENDROOT
BRANCH  21  24
ATOM     24  C22  11 d          -9.480 209.584 112.326  0.00  0.00     0.132 C 
BRANCH  24  25
ATOM     25  C23  11 d         -10.178 208.399 111.639  0.00  0.00     0.058 C 
BRANCH  25  26
ATOM     26  C24  11 d         -11.179 207.612 112.468  0.00  0.00    -0.057 A 
ATOM     27  C25  11 d         -10.680 206.576 113.288  0.00  0.00     0.007 A 
ATOM     28  C26  11 d         -11.536 205.845 114.125  0.00  0.00     0.001 A 
ATOM     29  C27  11 d         -12.902 206.152 114.171  0.00  0.00     0.000 A 
ATOM     30  C28  11 d         -13.410 207.194 113.386  0.00  0.00     0.001 A 
ATOM     31  C29  11 d         -12.556 207.928 112.547  0.00  0.00     0.007 A 
ENDBRANCH  25  26
ENDBRANCH  24  25
ENDBRANCH  21  24
BRANCH  18  32
ATOM     32  C17  11 d         -12.061 207.104 117.939  0.00  0.00     0.292 C 
ATOM     33  O3   11 d         -12.773 207.761 118.747  0.00  0.00    -0.259 OA
BRANCH  32  34
ATOM     34  O4   11 d         -12.211 205.683 117.824  0.00  0.00    -0.323 OA
ATOM     35  C18  11 d         -13.592 205.242 117.779  0.00  0.00     0.213 C 
ENDBRANCH  32  34
ENDBRANCH  18  32
TORSDOF 5
ENDMDL
MODEL 6
REMARK VINA RESULT:      -8.9      1.341      2.051
REMARK  5 active torsions:
REMARK  status: ('A' for Active; 'I' for Inactive)
REMARK    1  A    between atoms: C16_18  and  C17_19 
REMARK    2  A    between atoms: C17_19  and  O4_21 
REMARK    3  A    between atoms: N1_25  and  C22_28 
REMARK    4  A    between atoms: C22_28  and  C23_29 
REMARK    5  A    between atoms: C23_29  and  C24_30 
ROOT
ATOM      1  C1   11 d         -10.997 206.996 118.405  0.00  0.00     0.156 A 
ATOM      2  C2   11 d         -12.316 207.221 118.069  0.00  0.00     0.060 A 
ATOM      3  C3   11 d         -13.318 206.704 118.903  0.00  0.00     0.196 A 
ATOM      4  C4   11 d         -12.937 205.938 120.032  0.00  0.00     0.049 A 
ATOM      5  C5   11 d         -11.548 205.739 120.265  0.00  0.00     0.091 A 
ATOM      6  O1   11 d         -10.646 206.277 119.458  0.00  0.00    -0.303 OA
ATOM      7  C6   11 d         -11.127 204.959 121.348  0.00  0.00     0.045 A 
ATOM      8  C7   11 d         -12.062 204.353 122.211  0.00  0.00    -0.053 A 
ATOM      9  C8   11 d         -13.449 204.607 122.027  0.00  0.00    -0.055 A 
ATOM     10  C9   11 d         -13.872 205.368 120.917  0.00  0.00     0.025 A 
ATOM     11  C10  11 d         -14.500 203.941 122.882  0.00  0.00     0.049 C 
ATOM     12  C11  11 d         -11.542 203.588 123.405  0.00  0.00     0.049 C 
ATOM     13  O2   11 d         -14.529 206.923 118.642  0.00  0.00    -0.287 OA
ATOM     14  C12  11 d         -12.441 208.022 116.789  0.00  0.00     0.161 A 
ATOM     15  C13  11 d         -13.137 207.308 115.628  0.00  0.00    -0.030 A 
ATOM     16  C14  11 d         -13.352 208.009 114.422  0.00  0.00     0.011 A 
ATOM     17  C15  11 d         -13.938 207.384 113.311  0.00  0.00     0.018 A 
ATOM     18  C16  11 d         -14.332 206.034 113.373  0.00  0.00     0.039 A 
ATOM     19  C19  11 d         -14.164 205.339 114.584  0.00  0.00     0.018 A 
ATOM     20  C20  11 d         -13.584 205.967 115.697  0.00  0.00     0.011 A 
ATOM     21  N1   11 d         -10.992 208.338 116.481  0.00  0.00    -0.333 N 
ATOM     22  C21  11 d         -10.167 207.640 117.408  0.00  0.00     0.279 A 
ATOM     23  O5   11 d          -8.889 207.574 117.372  0.00  0.00    -0.265 OA
ENDROOT
BRANCH  21  24
ATOM     24  C22  11 d         -10.552 209.252 115.371  0.00  0.00     0.132 C 
BRANCH  24  25
ATOM     25  C23  11 d          -9.890 208.585 114.155  0.00  0.00     0.058 C 
BRANCH  25  26
ATOM     26  C24  11 d          -8.408 208.844 113.947  0.00  0.00    -0.057 A 
ATOM     27  C25  11 d          -7.813 208.338 112.770  0.00  0.00     0.007 A 
ATOM     28  C26  11 d          -6.464 208.587 112.480  0.00  0.00     0.001 A 
ATOM     29  C27  11 d          -5.691 209.363 113.354  0.00  0.00     0.000 A 
ATOM     30  C28  11 d          -6.271 209.897 114.512  0.00  0.00     0.001 A 
ATOM     31  C29  11 d          -7.621 209.650 114.804  0.00  0.00     0.007 A 
ENDBRANCH  25  26
ENDBRANCH  24  25
ENDBRANCH  21  24
BRANCH  18  32
ATOM     32  C17  11 d         -14.891 205.340 112.179  0.00  0.00     0.292 C 
ATOM     33  O3   11 d         -14.132 205.031 111.219  0.00  0.00    -0.259 OA
BRANCH  32  34
ATOM     34  O4   11 d         -16.297 205.072 112.113  0.00  0.00    -0.323 OA
ATOM     35  C18  11 d         -17.097 206.227 111.751  0.00  0.00     0.213 C 
ENDBRANCH  32  34
ENDBRANCH  18  32
TORSDOF 5
ENDMDL
MODEL 7
REMARK VINA RESULT:      -8.6      5.169      9.972
REMARK  5 active torsions:
REMARK  status: ('A' for Active; 'I' for Inactive)
REMARK    1  A    between atoms: C16_18  and  C17_19 
REMARK    2  A    between atoms: C17_19  and  O4_21 
REMARK    3  A    between atoms: N1_25  and  C22_28 
REMARK    4  A    between atoms: C22_28  and  C23_29 
REMARK    5  A    between atoms: C23_29  and  C24_30 
ROOT
ATOM      1  C1   11 d          -8.732 208.394 115.995  0.00  0.00     0.156 A 
ATOM      2  C2   11 d          -7.721 208.921 115.219  0.00  0.00     0.060 A 
ATOM      3  C3   11 d          -7.914 209.003 113.832  0.00  0.00     0.196 A 
ATOM      4  C4   11 d          -9.120 208.505 113.282  0.00  0.00     0.049 A 
ATOM      5  C5   11 d         -10.080 207.949 114.172  0.00  0.00     0.091 A 
ATOM      6  O1   11 d          -9.854 207.925 115.476  0.00  0.00    -0.303 OA
ATOM      7  C6   11 d         -11.270 207.413 113.667  0.00  0.00     0.045 A 
ATOM      8  C7   11 d         -11.530 207.400 112.282  0.00  0.00    -0.053 A 
ATOM      9  C8   11 d         -10.607 208.017 111.394  0.00  0.00    -0.055 A 
ATOM     10  C9   11 d          -9.395 208.531 111.900  0.00  0.00     0.025 A 
ATOM     11  C10  11 d         -10.802 207.986 109.897  0.00  0.00     0.049 C 
ATOM     12  C11  11 d         -12.866 206.877 111.810  0.00  0.00     0.049 C 
ATOM     13  O2   11 d          -7.025 209.512 113.102  0.00  0.00    -0.287 OA
ATOM     14  C12  11 d          -6.525 209.329 116.054  0.00  0.00     0.161 A 
ATOM     15  C13  11 d          -5.225 208.577 115.759  0.00  0.00    -0.030 A 
ATOM     16  C14  11 d          -4.049 208.943 116.448  0.00  0.00     0.011 A 
ATOM     17  C15  11 d          -2.844 208.251 116.251  0.00  0.00     0.018 A 
ATOM     18  C16  11 d          -2.777 207.169 115.353  0.00  0.00     0.039 A 
ATOM     19  C19  11 d          -3.932 206.825 114.627  0.00  0.00     0.018 A 
ATOM     20  C20  11 d          -5.134 207.522 114.819  0.00  0.00     0.011 A 
ATOM     21  N1   11 d          -7.029 209.071 117.460  0.00  0.00    -0.333 N 
ATOM     22  C21  11 d          -8.301 208.436 117.378  0.00  0.00     0.279 A 
ATOM     23  O5   11 d          -8.967 207.962 118.363  0.00  0.00    -0.265 OA
ENDROOT
BRANCH  21  24
ATOM     24  C22  11 d          -6.273 209.449 118.703  0.00  0.00     0.132 C 
BRANCH  24  25
ATOM     25  C23  11 d          -6.028 208.328 119.725  0.00  0.00     0.058 C 
BRANCH  25  26
ATOM     26  C24  11 d          -5.197 207.143 119.265  0.00  0.00    -0.057 A 
ATOM     27  C25  11 d          -5.822 206.188 118.432  0.00  0.00     0.007 A 
ATOM     28  C26  11 d          -5.102 205.099 117.919  0.00  0.00     0.001 A 
ATOM     29  C27  11 d          -3.740 204.957 118.214  0.00  0.00     0.000 A 
ATOM     30  C28  11 d          -3.097 205.908 119.016  0.00  0.00     0.001 A 
ATOM     31  C29  11 d          -3.814 207.000 119.530  0.00  0.00     0.007 A 
ENDBRANCH  25  26
ENDBRANCH  24  25
ENDBRANCH  21  24
BRANCH  18  32
ATOM     32  C17  11 d          -1.523 206.383 115.188  0.00  0.00     0.292 C 
ATOM     33  O3   11 d          -0.499 206.930 114.694  0.00  0.00    -0.259 OA
BRANCH  32  34
ATOM     34  O4   11 d          -1.506 204.996 115.550  0.00  0.00    -0.323 OA
ATOM     35  C18  11 d          -0.318 204.596 116.279  0.00  0.00     0.213 C 
ENDBRANCH  32  34
ENDBRANCH  18  32
TORSDOF 5
ENDMDL
MODEL 8
REMARK VINA RESULT:      -8.5      5.097      9.416
REMARK  5 active torsions:
REMARK  status: ('A' for Active; 'I' for Inactive)
REMARK    1  A    between atoms: C16_18  and  C17_19 
REMARK    2  A    between atoms: C17_19  and  O4_21 
REMARK    3  A    between atoms: N1_25  and  C22_28 
REMARK    4  A    between atoms: C22_28  and  C23_29 
REMARK    5  A    between atoms: C23_29  and  C24_30 
ROOT
ATOM      1  C1   11 d          -8.100 208.450 116.582  0.00  0.00     0.156 A 
ATOM      2  C2   11 d          -8.248 207.690 117.723  0.00  0.00     0.060 A 
ATOM      3  C3   11 d          -9.516 207.170 118.022  0.00  0.00     0.196 A 
ATOM      4  C4   11 d         -10.600 207.480 117.164  0.00  0.00     0.049 A 
ATOM      5  C5   11 d         -10.340 208.304 116.033  0.00  0.00     0.091 A 
ATOM      6  O1   11 d          -9.115 208.741 115.787  0.00  0.00    -0.303 OA
ATOM      7  C6   11 d         -11.388 208.665 115.179  0.00  0.00     0.045 A 
ATOM      8  C7   11 d         -12.707 208.236 115.428  0.00  0.00    -0.053 A 
ATOM      9  C8   11 d         -12.961 207.355 116.514  0.00  0.00    -0.055 A 
ATOM     10  C9   11 d         -11.910 207.016 117.392  0.00  0.00     0.025 A 
ATOM     11  C10  11 d         -14.360 206.908 116.866  0.00  0.00     0.049 C 
ATOM     12  C11  11 d         -13.777 208.597 114.425  0.00  0.00     0.049 C 
ATOM     13  O2   11 d          -9.676 206.443 119.037  0.00  0.00    -0.287 OA
ATOM     14  C12  11 d          -6.945 207.556 118.484  0.00  0.00     0.161 A 
ATOM     15  C13  11 d          -6.937 208.158 119.891  0.00  0.00    -0.030 A 
ATOM     16  C14  11 d          -5.782 208.018 120.690  0.00  0.00     0.011 A 
ATOM     17  C15  11 d          -5.705 208.595 121.967  0.00  0.00     0.018 A 
ATOM     18  C16  11 d          -6.786 209.331 122.487  0.00  0.00     0.039 A 
ATOM     19  C19  11 d          -7.959 209.439 121.718  0.00  0.00     0.018 A 
ATOM     20  C20  11 d          -8.038 208.855 120.445  0.00  0.00     0.011 A 
ATOM     21  N1   11 d          -5.974 208.257 117.556  0.00  0.00    -0.333 N 
ATOM     22  C21  11 d          -6.710 208.847 116.489  0.00  0.00     0.279 A 
ATOM     23  O5   11 d          -6.232 209.620 115.587  0.00  0.00    -0.265 OA
ENDROOT
BRANCH  21  24
ATOM     24  C22  11 d          -4.486 208.287 117.769  0.00  0.00     0.132 C 
BRANCH  24  25
ATOM     25  C23  11 d          -3.836 209.676 117.877  0.00  0.00     0.058 C 
BRANCH  25  26
ATOM     26  C24  11 d          -4.355 210.598 118.968  0.00  0.00    -0.057 A 
ATOM     27  C25  11 d          -3.486 210.899 120.040  0.00  0.00     0.007 A 
ATOM     28  C26  11 d          -3.872 211.789 121.052  0.00  0.00     0.001 A 
ATOM     29  C27  11 d          -5.128 212.409 120.999  0.00  0.00     0.000 A 
ATOM     30  C28  11 d          -5.992 212.143 119.930  0.00  0.00     0.001 A 
ATOM     31  C29  11 d          -5.608 211.254 118.915  0.00  0.00     0.007 A 
ENDBRANCH  25  26
ENDBRANCH  24  25
ENDBRANCH  21  24
BRANCH  18  32
ATOM     32  C17  11 d          -6.690 210.008 123.811  0.00  0.00     0.292 C 
ATOM     33  O3   11 d          -5.819 210.901 123.998  0.00  0.00    -0.259 OA
BRANCH  32  34
ATOM     34  O4   11 d          -7.561 209.602 124.875  0.00  0.00    -0.323 OA
ATOM     35  C18  11 d          -7.320 208.251 125.345  0.00  0.00     0.213 C 
ENDBRANCH  32  34
ENDBRANCH  18  32
TORSDOF 5
ENDMDL
MODEL 9
REMARK VINA RESULT:      -8.5      4.332      9.365
REMARK  5 active torsions:
REMARK  status: ('A' for Active; 'I' for Inactive)
REMARK    1  A    between atoms: C16_18  and  C17_19 
REMARK    2  A    between atoms: C17_19  and  O4_21 
REMARK    3  A    between atoms: N1_25  and  C22_28 
REMARK    4  A    between atoms: C22_28  and  C23_29 
REMARK    5  A    between atoms: C23_29  and  C24_30 
ROOT
ATOM      1  C1   11 d         -10.064 207.664 115.857  0.00  0.00     0.156 A 
ATOM      2  C2   11 d          -9.212 208.571 115.262  0.00  0.00     0.060 A 
ATOM      3  C3   11 d          -9.346 208.816 113.888  0.00  0.00     0.196 A 
ATOM      4  C4   11 d         -10.321 208.091 113.159  0.00  0.00     0.049 A 
ATOM      5  C5   11 d         -11.122 207.153 113.867  0.00  0.00     0.091 A 
ATOM      6  O1   11 d         -10.970 206.987 115.172  0.00  0.00    -0.303 OA
ATOM      7  C6   11 d         -12.074 206.390 113.180  0.00  0.00     0.045 A 
ATOM      8  C7   11 d         -12.243 206.526 111.788  0.00  0.00    -0.053 A 
ATOM      9  C8   11 d         -11.497 207.511 111.087  0.00  0.00    -0.055 A 
ATOM     10  C9   11 d         -10.518 208.259 111.774  0.00  0.00     0.025 A 
ATOM     11  C10  11 d         -11.593 207.665 109.587  0.00  0.00     0.049 C 
ATOM     12  C11  11 d         -13.339 205.729 111.121  0.00  0.00     0.049 C 
ATOM     13  O2   11 d          -8.608 209.664 113.324  0.00  0.00    -0.287 OA
ATOM     14  C12  11 d          -8.235 209.162 116.258  0.00  0.00     0.161 A 
ATOM     15  C13  11 d          -6.758 208.864 115.991  0.00  0.00    -0.030 A 
ATOM     16  C14  11 d          -5.780 209.432 116.835  0.00  0.00     0.011 A 
ATOM     17  C15  11 d          -4.416 209.150 116.663  0.00  0.00     0.018 A 
ATOM     18  C16  11 d          -3.987 208.288 115.636  0.00  0.00     0.039 A 
ATOM     19  C19  11 d          -4.949 207.752 114.761  0.00  0.00     0.018 A 
ATOM     20  C20  11 d          -6.311 208.041 114.929  0.00  0.00     0.011 A 
ATOM     21  N1   11 d          -8.716 208.552 117.560  0.00  0.00    -0.333 N 
ATOM     22  C21  11 d          -9.739 207.606 117.268  0.00  0.00     0.279 A 
ATOM     23  O5   11 d         -10.288 206.812 118.109  0.00  0.00    -0.265 OA
ENDROOT
BRANCH  21  24
ATOM     24  C22  11 d          -8.172 208.926 118.911  0.00  0.00     0.132 C 
BRANCH  24  25
ATOM     25  C23  11 d          -7.596 207.781 119.759  0.00  0.00     0.058 C 
BRANCH  25  26
ATOM     26  C24  11 d          -6.334 207.108 119.246  0.00  0.00    -0.057 A 
ATOM     27  C25  11 d          -5.109 207.459 119.855  0.00  0.00     0.007 A 
ATOM     28  C26  11 d          -3.912 206.836 119.475  0.00  0.00     0.001 A 
ATOM     29  C27  11 d          -3.921 205.837 118.493  0.00  0.00     0.000 A 
ATOM     30  C28  11 d          -5.130 205.456 117.898  0.00  0.00     0.001 A 
ATOM     31  C29  11 d          -6.331 206.077 118.276  0.00  0.00     0.007 A 
ENDBRANCH  25  26
ENDBRANCH  24  25
ENDBRANCH  21  24
BRANCH  18  32
ATOM     32  C17  11 d          -2.550 207.924 115.488  0.00  0.00     0.292 C 
ATOM     33  O3   11 d          -1.695 208.405 116.282  0.00  0.00    -0.259 OA
BRANCH  32  34
ATOM     34  O4   11 d          -2.146 207.066 114.414  0.00  0.00    -0.323 OA
ATOM     35  C18  11 d          -1.491 207.762 113.323  0.00  0.00     0.213 C 
ENDBRANCH  32  34
ENDBRANCH  18  32
TORSDOF 5
ENDMDL
MODEL 10
REMARK VINA RESULT:      -8.4      4.671      8.374
REMARK  5 active torsions:
REMARK  status: ('A' for Active; 'I' for Inactive)
REMARK    1  A    between atoms: C16_18  and  C17_19 
REMARK    2  A    between atoms: C17_19  and  O4_21 
REMARK    3  A    between atoms: N1_25  and  C22_28 
REMARK    4  A    between atoms: C22_28  and  C23_29 
REMARK    5  A    between atoms: C23_29  and  C24_30 
ROOT
ATOM      1  C1   11 d          -9.434 207.418 117.510  0.00  0.00     0.156 A 
ATOM      2  C2   11 d          -9.104 208.444 116.649  0.00  0.00     0.060 A 
ATOM      3  C3   11 d          -9.988 208.754 115.605  0.00  0.00     0.196 A 
ATOM      4  C4   11 d         -11.161 207.974 115.452  0.00  0.00     0.049 A 
ATOM      5  C5   11 d         -11.384 206.917 116.377  0.00  0.00     0.091 A 
ATOM      6  O1   11 d         -10.527 206.691 117.361  0.00  0.00    -0.303 OA
ATOM      7  C6   11 d         -12.512 206.099 116.243  0.00  0.00     0.045 A 
ATOM      8  C7   11 d         -13.430 206.298 115.191  0.00  0.00    -0.053 A 
ATOM      9  C8   11 d         -13.251 207.396 114.307  0.00  0.00    -0.055 A 
ATOM     10  C9   11 d         -12.099 208.201 114.426  0.00  0.00     0.025 A 
ATOM     11  C10  11 d         -14.167 207.627 113.129  0.00  0.00     0.049 C 
ATOM     12  C11  11 d         -14.666 205.431 115.148  0.00  0.00     0.049 C 
ATOM     13  O2   11 d          -9.732 209.707 114.825  0.00  0.00    -0.287 OA
ATOM     14  C12  11 d          -7.774 209.075 117.008  0.00  0.00     0.161 A 
ATOM     15  C13  11 d          -6.676 208.951 115.949  0.00  0.00    -0.030 A 
ATOM     16  C14  11 d          -5.428 209.569 116.179  0.00  0.00     0.011 A 
ATOM     17  C15  11 d          -4.373 209.442 115.263  0.00  0.00     0.018 A 
ATOM     18  C16  11 d          -4.535 208.692 114.082  0.00  0.00     0.039 A 
ATOM     19  C19  11 d          -5.789 208.110 113.821  0.00  0.00     0.018 A 
ATOM     20  C20  11 d          -6.845 208.244 114.734  0.00  0.00     0.011 A 
ATOM     21  N1   11 d          -7.421 208.342 118.287  0.00  0.00    -0.333 N 
ATOM     22  C21  11 d          -8.381 207.312 118.500  0.00  0.00     0.279 A 
ATOM     23  O5   11 d          -8.329 206.417 119.414  0.00  0.00    -0.265 OA
ENDROOT
BRANCH  21  24
ATOM     24  C22  11 d          -6.244 208.691 119.154  0.00  0.00     0.132 C 
BRANCH  24  25
ATOM     25  C23  11 d          -5.238 207.563 119.431  0.00  0.00     0.058 C 
BRANCH  25  26
ATOM     26  C24  11 d          -4.379 207.101 118.266  0.00  0.00    -0.057 A 
ATOM     27  C25  11 d          -3.046 207.565 118.209  0.00  0.00     0.007 A 
ATOM     28  C26  11 d          -2.176 207.134 117.197  0.00  0.00     0.001 A 
ATOM     29  C27  11 d          -2.619 206.218 116.235  0.00  0.00     0.000 A 
ATOM     30  C28  11 d          -3.929 205.726 116.291  0.00  0.00     0.001 A 
ATOM     31  C29  11 d          -4.802 206.154 117.303  0.00  0.00     0.007 A 
ENDBRANCH  25  26
ENDBRANCH  24  25
ENDBRANCH  21  24
BRANCH  18  32
ATOM     32  C17  11 d          -3.401 208.492 113.137  0.00  0.00     0.292 C 
ATOM     33  O3   11 d          -3.074 207.325 112.787  0.00  0.00    -0.259 OA
BRANCH  32  34
ATOM     34  O4   11 d          -2.662 209.628 112.671  0.00  0.00    -0.323 OA
ATOM     35  C18  11 d          -2.134 209.472 111.328  0.00  0.00     0.213 C 
ENDBRANCH  32  34
ENDBRANCH  18  32
TORSDOF 5
ENDMDL
