REMARK  1 active torsions:
REMARK  status: ('A' for Active; 'I' for Inactive)
REMARK    1  A    between atoms: C3_3  and  O1_4 
REMARK       I    between atoms: C9_11  and  N5_16 
REMARK       I    between atoms: C10_13  and  N4_15 
ROOT
ATOM      1  C1   11 d           3.127   6.344  -3.609  0.00  0.00     0.200 A 
ATOM      2  C2   11 d           2.935   6.426  -5.088  0.00  0.00     0.046 A 
ATOM      3  C3   11 d           3.971   6.844  -5.970  0.00  0.00     0.082 A 
ATOM      4  C5   11 d           3.754   6.838  -7.360  0.00  0.00     0.038 A 
ATOM      5  C6   11 d           2.505   6.490  -7.888  0.00  0.00     0.003 A 
ATOM      6  C7   11 d           1.466   6.117  -7.029  0.00  0.00     0.001 A 
ATOM      7  C8   11 d           1.680   6.078  -5.644  0.00  0.00     0.018 A 
ATOM      8  N1   11 d           2.161   5.784  -2.822  0.00  0.00    -0.041 NA
ATOM      9  C9   11 d           2.315   5.702  -1.473  0.00  0.00     0.738 A 
ATOM     10  N2   11 d           3.441   6.189  -0.891  0.00  0.00     0.129 NA
ATOM     11  C10  11 d           4.411   6.752  -1.657  0.00  0.00     0.738 A 
ATOM     12  N3   11 d           4.250   6.825  -3.004  0.00  0.00    -0.041 NA
ATOM     13  N4   11 d           5.547   7.248  -1.076  0.00  0.00    -0.230 N 
ATOM     14  N5   11 d           1.337   5.129  -0.705  0.00  0.00    -0.230 N 
ATOM     15  H8   11 d           5.665   7.206  -0.090  0.00  0.00     0.174 HD
ATOM     16  H9   11 d           6.259   7.652  -1.639  0.00  0.00     0.174 HD
ATOM     17  H10  11 d           0.513   4.771  -1.130  0.00  0.00     0.174 HD
ATOM     18  H11  11 d           1.446   5.069   0.281  0.00  0.00     0.174 HD
ENDROOT
BRANCH   3  19
ATOM     19  O1   11 d           5.285   7.132  -5.508  0.00  0.00    -0.355 OA
ATOM     20  C4   11 d           5.450   8.566  -5.359  0.00  0.00     0.210 C 
ENDBRANCH   3  19
TORSDOF 1
