REMARK  3 active torsions:
REMARK  status: ('A' for Active; 'I' for Inactive)
REMARK    1  A    between atoms: C3_3  and  N1_4 
REMARK    2  A    between atoms: N1_4  and  C4_5 
REMARK    3  A    between atoms: C17_19  and  N3_20 
ROOT
ATOM      1  C1   11 d           0.372   6.981  -3.010  0.00  0.00    -0.019 A 
ATOM      2  C2   11 d           1.518   7.045  -2.220  0.00  0.00     0.073 A 
ATOM      3  C3   11 d           2.824   7.670  -2.659  0.00  0.00     0.238 C 
ATOM      4  C11  11 d           2.771   7.948  -4.193  0.00  0.00     0.040 C 
ATOM      5  C12  11 d           1.427   8.550  -4.658  0.00  0.00     0.007 C 
ATOM      6  C13  11 d           0.243   7.611  -4.368  0.00  0.00     0.042 C 
ATOM      7  N2   11 d           1.301   6.423  -1.036  0.00  0.00    -0.250 NA
ATOM      8  C14  11 d           0.013   6.014  -1.043  0.00  0.00     0.068 A 
ATOM      9  C15  11 d          -0.590   6.367  -2.235  0.00  0.00     0.003 A 
ATOM     10  C16  11 d          -1.934   6.076  -2.498  0.00  0.00     0.050 A 
ATOM     11  C17  11 d          -2.693   5.393  -1.509  0.00  0.00     0.103 A 
ATOM     12  C18  11 d          -2.052   5.024  -0.290  0.00  0.00     0.038 A 
ATOM     13  C19  11 d          -0.697   5.334  -0.051  0.00  0.00     0.035 A 
ENDROOT
BRANCH   3  14
ATOM     14  N1   11 d           3.130   8.901  -1.832  0.00  0.00    -0.061 N 
ATOM     15  H2   11 d           2.808   9.782  -2.350  0.00  0.00     0.278 HD
ATOM     16  H3   11 d           2.540   8.867  -0.934  0.00  0.00     0.278 HD
BRANCH  14  17
ATOM     17  C4   11 d           4.570   9.082  -1.407  0.00  0.00     0.186 C 
ATOM     18  C5   11 d           4.673  10.299  -0.445  0.00  0.00     0.033 C 
ATOM     19  C6   11 d           5.990  10.384   0.344  0.00  0.00     0.002 C 
ATOM     20  C7   11 d           7.131  11.133  -0.360  0.00  0.00     0.000 C 
ATOM     21  C8   11 d           7.319  10.869  -1.861  0.00  0.00     0.000 C 
ATOM     22  C9   11 d           7.016   9.436  -2.317  0.00  0.00     0.002 C 
ATOM     23  C10  11 d           5.529   9.193  -2.620  0.00  0.00     0.033 C 
ENDBRANCH  14  17
ENDBRANCH   3  14
BRANCH  11  24
ATOM     24  N3   11 d          -4.037   5.081  -1.728  0.00  0.00    -0.116 N 
ATOM     25  O1   11 d          -4.580   5.475  -2.656  0.00  0.00    -0.532 OA
ATOM     26  O2   11 d          -4.726   4.528  -0.826  0.00  0.00    -0.532 OA
ENDBRANCH  11  24
TORSDOF 3
