REMARK  5 active torsions:
REMARK  status: ('A' for Active; 'I' for Inactive)
REMARK    1  A    between atoms: C1_1  and  C14_16 
REMARK    2  A    between atoms: C2_2  and  O1_15 
REMARK    3  A    between atoms: C4_4  and  C6_7 
REMARK    4  A    between atoms: C6_7  and  C7_8 
REMARK    5  A    between atoms: C14_16  and  N2_17 
ROOT
ATOM      1  C1   11 d           3.502   4.680   6.073  0.00  0.00     0.093 A 
ATOM      2  C2   11 d           2.151   4.670   5.663  0.00  0.00     0.092 A 
ATOM      3  C3   11 d           1.846   4.719   4.294  0.00  0.00     0.047 A 
ATOM      4  C4   11 d           2.876   4.770   3.335  0.00  0.00    -0.034 A 
ATOM      5  C5   11 d           4.208   4.788   3.789  0.00  0.00     0.124 A 
ATOM      6  N1   11 d           4.482   4.715   5.123  0.00  0.00    -0.260 NA
ENDROOT
BRANCH   1   7
ATOM      7  C14  11 d           3.880   4.438   7.519  0.00  0.00     0.296 C 
BRANCH   7   8
ATOM      8  N2   11 d           5.181   3.689   7.695  0.00  0.00    -0.062 N 
ATOM      9  C15  11 d           5.178   2.884   8.966  0.00  0.00     0.261 C 
ATOM     10  C16  11 d           6.514   2.159   9.167  0.00  0.00     0.195 C 
ATOM     11  O2   11 d           7.597   3.123   9.147  0.00  0.00    -0.388 OA
ATOM     12  C17  11 d           7.675   3.835   7.886  0.00  0.00     0.195 C 
ATOM     13  C18  11 d           6.374   4.610   7.658  0.00  0.00     0.261 C 
ATOM     14  H15  11 d           5.278   2.985   6.886  0.00  0.00     0.280 HD
ENDBRANCH   7   8
ENDBRANCH   1   7
BRANCH   2  15
ATOM     15  O1   11 d           1.112   4.556   6.619  0.00  0.00    -0.359 OA
ATOM     16  H12  11 d           0.554   5.429   6.546  0.00  0.00     0.217 HD
ENDBRANCH   2  15
BRANCH   4  17
ATOM     17  C6   11 d           2.565   4.820   1.854  0.00  0.00     0.078 C 
BRANCH  17  18
ATOM     18  C7   11 d           3.070   3.658   1.015  0.00  0.00    -0.054 A 
ATOM     19  C8   11 d           2.828   3.707  -0.373  0.00  0.00     0.008 A 
ATOM     20  C9   11 d           3.268   2.677  -1.218  0.00  0.00     0.007 A 
ATOM     21  C10  11 d           3.931   1.556  -0.689  0.00  0.00    -0.062 A 
ATOM     22  C11  11 d           4.199   1.510   0.690  0.00  0.00     0.007 A 
ATOM     23  C13  11 d           4.494   0.504  -1.605  0.00  0.00     0.048 C 
ATOM     24  C12  11 d           3.759   2.538   1.537  0.00  0.00     0.008 A 
ENDBRANCH  17  18
ENDBRANCH   4  17
TORSDOF 5
