REMARK  6 active torsions:
REMARK  status: ('A' for Active; 'I' for Inactive)
REMARK    1  A    between atoms: C1_1  and  C2_2 
REMARK    2  A    between atoms: C1_1  and  O4_20 
REMARK    3  A    between atoms: C5_5  and  N1_6 
REMARK    4  A    between atoms: C6_7  and  C7_8 
REMARK    5  A    between atoms: C9_10  and  N2_11 
REMARK    6  A    between atoms: O4_20  and  C15_21 
ROOT
ATOM      1  C2   11 d           0.933 -10.228  -5.098  0.00  0.00     0.039 A 
ATOM      2  C3   11 d          -0.177  -9.557  -5.653  0.00  0.00     0.020 A 
ATOM      3  C4   11 d          -1.483  -9.909  -5.280  0.00  0.00     0.032 A 
ATOM      4  C5   11 d          -1.704 -10.962  -4.368  0.00  0.00     0.056 A 
ATOM      5  C13  11 d          -0.600 -11.615  -3.798  0.00  0.00     0.032 A 
ATOM      6  C14  11 d           0.707 -11.256  -4.160  0.00  0.00     0.020 A 
ENDROOT
BRANCH   4   7
ATOM      7  N1   11 d          -3.024 -11.351  -3.922  0.00  0.00    -0.260 NA
ATOM      8  C6   11 d          -4.059 -11.485  -4.729  0.00  0.00     0.128 C 
BRANCH   8   9
ATOM      9  C7   11 d          -4.072 -11.457  -6.222  0.00  0.00    -0.016 A 
ATOM     10  C8   11 d          -3.030 -11.995  -7.007  0.00  0.00     0.049 A 
ATOM     11  C9   11 d          -3.077 -11.952  -8.422  0.00  0.00     0.103 A 
ATOM     12  C10  11 d          -4.220 -11.386  -9.034  0.00  0.00     0.036 A 
ATOM     13  C11  11 d          -5.273 -10.880  -8.262  0.00  0.00     0.003 A 
ATOM     14  C12  11 d          -5.202 -10.919  -6.864  0.00  0.00     0.013 A 
BRANCH  11  15
ATOM     15  N2   11 d          -2.034 -12.464  -9.198  0.00  0.00    -0.116 N 
ATOM     16  O1   11 d          -1.046 -12.777  -8.709  0.00  0.00    -0.532 OA
ATOM     17  O2   11 d          -2.074 -12.396 -10.459  0.00  0.00    -0.532 OA
ENDBRANCH  11  15
ENDBRANCH   8   9
ENDBRANCH   4   7
BRANCH   1  18
ATOM     18  C1   11 d           2.322  -9.854  -5.478  0.00  0.00     0.293 C 
ATOM     19  O3   11 d           2.530  -9.030  -6.407  0.00  0.00    -0.259 OA
BRANCH  18  20
ATOM     20  O4   11 d           3.433 -10.469  -4.832  0.00  0.00    -0.318 OA
BRANCH  20  21
ATOM     21  C15  11 d           4.118  -9.507  -3.992  0.00  0.00     0.174 C 
ATOM     22  C16  11 d           5.056 -10.254  -3.054  0.00  0.00     0.034 C 
ENDBRANCH  20  21
ENDBRANCH  18  20
ENDBRANCH   1  18
TORSDOF 6
