REMARK  7 active torsions:
REMARK  status: ('A' for Active; 'I' for Inactive)
REMARK    1  A    between atoms: C1_1  and  O2_3 
REMARK       I    between atoms: C1_1  and  N1_8 
REMARK    2  A    between atoms: O2_3  and  C2_4 
REMARK    3  A    between atoms: C2_4  and  C3_5 
REMARK    4  A    between atoms: C3_5  and  C4_6 
REMARK    5  A    between atoms: N1_8  and  N2_9 
REMARK    6  A    between atoms: C6_10  and  C7_11 
REMARK    7  A    between atoms: C8_12  and  C9_13 
ROOT
ATOM      1  N2   11 d          -1.885  -8.669  -8.079  0.00  0.00    -0.183 NA
ATOM      2  C6   11 d          -1.706  -9.233  -9.245  0.00  0.00     0.139 C 
ENDROOT
BRANCH   1   3
ATOM      3  N1   11 d          -0.949  -8.994  -7.095  0.00  0.00    -0.223 N 
ATOM      4  C1   11 d          -1.379  -9.609  -5.897  0.00  0.00     0.381 C 
ATOM      5  O1   11 d          -2.622  -9.877  -5.719  0.00  0.00    -0.237 OA
ATOM      6  H10  11 d           0.089  -8.768  -7.251  0.00  0.00     0.194 HD
BRANCH   4   7
ATOM      7  O2   11 d          -0.396  -9.919  -4.905  0.00  0.00    -0.303 OA
BRANCH   7   8
ATOM      8  C2   11 d          -0.906 -10.720  -3.808  0.00  0.00     0.180 C 
BRANCH   8   9
ATOM      9  C3   11 d           0.185 -10.872  -2.749  0.00  0.00     0.026 C 
BRANCH   9  10
ATOM     10  C4   11 d          -0.284 -11.712  -1.555  0.00  0.00    -0.002 C 
ATOM     11  C5   11 d           0.782 -11.815  -0.466  0.00  0.00     0.005 C 
ENDBRANCH   9  10
ENDBRANCH   8   9
ENDBRANCH   7   8
ENDBRANCH   4   7
ENDBRANCH   1   3
BRANCH   2  12
ATOM     12  C7   11 d          -2.686  -8.947 -10.314  0.00  0.00     0.022 C 
ATOM     13  C8   11 d          -2.581  -9.247 -11.626  0.00  0.00     0.013 C 
BRANCH  13  14
ATOM     14  C9   11 d          -1.407  -9.821 -12.342  0.00  0.00    -0.036 A 
ATOM     15  C10  11 d          -0.072  -9.509 -12.008  0.00  0.00     0.011 A 
ATOM     16  C11  11 d           0.992 -10.050 -12.745  0.00  0.00     0.001 A 
ATOM     17  C12  11 d           0.737 -10.893 -13.836  0.00  0.00     0.000 A 
ATOM     18  C13  11 d          -0.585 -11.191 -14.193  0.00  0.00     0.001 A 
ATOM     19  C14  11 d          -1.651 -10.655 -13.454  0.00  0.00     0.011 A 
ENDBRANCH  13  14
ENDBRANCH   2  12
TORSDOF 7
