REMARK  1 active torsions:
REMARK  status: ('A' for Active; 'I' for Inactive)
REMARK       I    between atoms: C1_1  and  N1_2 
REMARK    1  A    between atoms: C9_10  and  S1_11 
ROOT
ATOM      1  C1   11 d          -2.709  -5.154   0.797  0.00  0.00     0.221 C 
ATOM      2  N1   11 d          -3.527  -6.322   0.967  0.00  0.00    -0.296 N 
ATOM      3  C2   11 d          -4.617  -6.478   1.921  0.00  0.00     0.045 A 
ATOM      4  C3   11 d          -5.191  -7.728   1.766  0.00  0.00    -0.028 A 
ATOM      5  C4   11 d          -6.249  -8.151   2.585  0.00  0.00     0.009 A 
ATOM      6  C5   11 d          -6.745  -7.272   3.563  0.00  0.00     0.001 A 
ATOM      7  C6   11 d          -6.180  -5.992   3.713  0.00  0.00     0.002 A 
ATOM      8  C7   11 d          -5.112  -5.585   2.892  0.00  0.00     0.030 A 
ATOM      9  C8   11 d          -4.536  -8.515   0.686  0.00  0.00     0.085 A 
ATOM     10  C9   11 d          -3.400  -7.597   0.181  0.00  0.00     0.241 A 
ATOM     11  O4   11 d          -2.933  -4.104   1.498  0.00  0.00    -0.273 OA
ATOM     12  C10  11 d          -1.632  -5.071  -0.245  0.00  0.00     0.117 C 
ENDROOT
BRANCH  10  13
ATOM     13  S1   11 d          -1.757  -8.418   0.364  0.00  0.00     0.126 S 
ATOM     14  O1   11 d          -1.813  -9.943   0.126  0.00  0.00    -0.594 OA
ATOM     15  O2   11 d          -1.177  -8.343   1.793  0.00  0.00    -0.594 OA
ATOM     16  O3   11 d          -0.500  -7.891  -0.655  0.00  0.00    -0.594 OA
ENDBRANCH  10  13
TORSDOF 1
