REMARK  4 active torsions:
REMARK  status: ('A' for Active; 'I' for Inactive)
REMARK    1  A    between atoms: C1_1  and  C2_2 
REMARK    2  A    between atoms: C2_2  and  C3_5 
REMARK    3  A    between atoms: N1_3  and  O1_4 
REMARK    4  A    between atoms: C3_5  and  C4_6 
ROOT
ATOM      1  C1   11 d           3.080  -7.505  -5.700  0.00  0.00     0.026 A 
ATOM      2  C10  11 d           1.756  -7.256  -5.306  0.00  0.00     0.021 A 
ATOM      3  N2   11 d           1.171  -6.426  -6.218  0.00  0.00    -0.353 N 
ATOM      4  C11  11 d           2.106  -6.082  -7.134  0.00  0.00     0.045 A 
ATOM      5  C12  11 d           3.294  -6.726  -6.832  0.00  0.00     0.005 A 
ATOM      6  C13  11 d           4.452  -6.511  -7.599  0.00  0.00     0.014 A 
ATOM      7  C14  11 d           4.369  -5.653  -8.713  0.00  0.00     0.001 A 
ATOM      8  C15  11 d           3.151  -5.019  -9.038  0.00  0.00     0.002 A 
ATOM      9  C16  11 d           2.006  -5.227  -8.245  0.00  0.00     0.030 A 
ATOM     10  C17  11 d          -0.192  -5.889  -6.142  0.00  0.00     0.156 C 
ATOM     11  C18  11 d           1.020  -7.998  -4.224  0.00  0.00     0.069 C 
ENDROOT
BRANCH   1  12
ATOM     12  C2   11 d           4.051  -8.405  -5.015  0.00  0.00     0.078 C 
ATOM     13  N1   11 d           4.082  -8.349  -3.699  0.00  0.00    -0.140 NA
BRANCH  13  14
ATOM     14  O1   11 d           4.997  -9.111  -3.124  0.00  0.00    -0.266 OA
ATOM     15  H1   11 d           5.077  -9.138  -2.120  0.00  0.00     0.247 HD
ENDBRANCH  13  14
BRANCH  12  16
ATOM     16  C3   11 d           4.960  -9.320  -5.836  0.00  0.00     0.101 C 
BRANCH  16  17
ATOM     17  C4   11 d           4.825 -10.819  -5.644  0.00  0.00    -0.052 A 
ATOM     18  C5   11 d           5.691 -11.654  -6.383  0.00  0.00     0.007 A 
ATOM     19  C6   11 d           5.622 -13.049  -6.257  0.00  0.00     0.001 A 
ATOM     20  C7   11 d           4.683 -13.631  -5.396  0.00  0.00     0.000 A 
ATOM     21  C8   11 d           3.812 -12.817  -4.660  0.00  0.00     0.001 A 
ATOM     22  C9   11 d           3.879 -11.421  -4.782  0.00  0.00     0.007 A 
ENDBRANCH  16  17
ENDBRANCH  12  16
ENDBRANCH   1  12
TORSDOF 4
