REMARK  2 active torsions:
REMARK  status: ('A' for Active; 'I' for Inactive)
REMARK    1  A    between atoms: C10_10  and  S1_11 
REMARK    2  A    between atoms: S1_11  and  C11_12 
ROOT
ATOM      1  C1   11 d           1.553 -10.179  -4.597  0.00  0.00    -0.026 A 
ATOM      2  C2   11 d           2.989  -9.814  -4.407  0.00  0.00    -0.026 A 
ATOM      3  C3   11 d           3.594  -8.817  -5.206  0.00  0.00     0.012 A 
ATOM      4  C4   11 d           4.942  -8.475  -5.026  0.00  0.00     0.001 A 
ATOM      5  C5   11 d           5.707  -9.121  -4.046  0.00  0.00     0.000 A 
ATOM      6  C6   11 d           5.123 -10.112  -3.246  0.00  0.00     0.001 A 
ATOM      7  C7   11 d           3.775 -10.458  -3.424  0.00  0.00     0.012 A 
ATOM      8  C8   11 d           0.742 -10.527  -3.494  0.00  0.00     0.014 A 
ATOM      9  C9   11 d          -0.607 -10.866  -3.674  0.00  0.00     0.024 A 
ATOM     10  C10  11 d          -1.179 -10.854  -4.957  0.00  0.00     0.060 A 
ATOM     11  C15  11 d          -0.378 -10.523  -6.062  0.00  0.00     0.024 A 
ATOM     12  C16  11 d           0.973 -10.187  -5.885  0.00  0.00     0.014 A 
ENDROOT
BRANCH  10  13
ATOM     13  S1   11 d          -2.916 -11.275  -5.187  0.00  0.00     0.183 S 
ATOM     14  O1   11 d          -3.483 -11.797  -3.863  0.00  0.00    -0.222 OA
ATOM     15  O2   11 d          -3.014 -12.436  -6.179  0.00  0.00    -0.222 OA
BRANCH  13  16
ATOM     16  C11  11 d          -3.957  -9.871  -5.763  0.00  0.00     0.058 C 
ATOM     17  C12  11 d          -5.417 -10.352  -5.854  0.00  0.00     0.031 C 
ATOM     18  C13  11 d          -3.495  -9.379  -7.146  0.00  0.00     0.031 C 
ATOM     19  C14  11 d          -3.850  -8.726  -4.740  0.00  0.00     0.031 C 
ENDBRANCH  13  16
ENDBRANCH  10  13
TORSDOF 2
