REMARK  4 active torsions:
REMARK  status: ('A' for Active; 'I' for Inactive)
REMARK    1  A    between atoms: C4_5  and  C11_16 
REMARK    2  A    between atoms: C8_10  and  N3_11 
REMARK    3  A    between atoms: C12_17  and  C13_18 
REMARK    4  A    between atoms: C16_21  and  N4_22 
ROOT
ATOM      1  C1   11 d          -4.149   3.921  -5.810  0.00  0.00     0.266 A 
ATOM      2  C2   11 d          -3.581   2.630  -5.826  0.00  0.00     0.061 A 
ATOM      3  C3   11 d          -3.180   2.074  -4.593  0.00  0.00     0.074 A 
ATOM      4  N1   11 d          -3.335   2.785  -3.447  0.00  0.00    -0.230 NA
ATOM      5  C4   11 d          -3.864   4.038  -3.436  0.00  0.00     0.138 A 
ATOM      6  N2   11 d          -4.305   4.605  -4.621  0.00  0.00    -0.262 N 
ATOM      7  C5   11 d          -4.970   5.892  -4.633  0.00  0.00     0.044 A 
ATOM      8  C6   11 d          -4.396   6.985  -5.307  0.00  0.00     0.032 A 
ATOM      9  C7   11 d          -5.011   8.245  -5.268  0.00  0.00     0.038 A 
ATOM     10  C8   11 d          -6.214   8.446  -4.550  0.00  0.00     0.103 A 
ATOM     11  C9   11 d          -6.793   7.332  -3.897  0.00  0.00     0.038 A 
ATOM     12  C10  11 d          -6.181   6.072  -3.941  0.00  0.00     0.032 A 
ATOM     13  C19  11 d          -2.617   0.788  -4.548  0.00  0.00     0.032 A 
ATOM     14  C20  11 d          -2.452   0.050  -5.729  0.00  0.00     0.002 A 
ATOM     15  C21  11 d          -2.849   0.596  -6.959  0.00  0.00     0.001 A 
ATOM     16  C22  11 d          -3.412   1.881  -7.012  0.00  0.00     0.019 A 
ATOM     17  O5   11 d          -4.543   4.436  -6.891  0.00  0.00    -0.267 OA
ENDROOT
BRANCH   5  18
ATOM     18  C11  11 d          -3.935   4.664  -2.085  0.00  0.00     0.052 C 
ATOM     19  C12  11 d          -3.720   5.977  -1.845  0.00  0.00     0.015 C 
BRANCH  19  20
ATOM     20  C13  11 d          -3.881   6.663  -0.531  0.00  0.00    -0.036 A 
ATOM     21  C14  11 d          -4.155   5.993   0.681  0.00  0.00     0.014 A 
ATOM     22  C15  11 d          -4.334   6.713   1.872  0.00  0.00     0.037 A 
ATOM     23  C16  11 d          -4.249   8.124   1.892  0.00  0.00     0.102 A 
ATOM     24  C17  11 d          -3.961   8.788   0.679  0.00  0.00     0.037 A 
ATOM     25  C18  11 d          -3.780   8.068  -0.511  0.00  0.00     0.014 A 
BRANCH  23  26
ATOM     26  N4   11 d          -4.435   8.848   3.075  0.00  0.00    -0.116 N 
ATOM     27  O3   11 d          -4.753   8.315   4.038  0.00  0.00    -0.532 OA
ATOM     28  O4   11 d          -4.446  10.110   3.064  0.00  0.00    -0.532 OA
ENDBRANCH  23  26
ENDBRANCH  19  20
ENDBRANCH   5  18
BRANCH  10  29
ATOM     29  N3   11 d          -6.822   9.704  -4.487  0.00  0.00    -0.116 N 
ATOM     30  O1   11 d          -6.313  10.617  -4.957  0.00  0.00    -0.532 OA
ATOM     31  O2   11 d          -7.810   9.902  -3.728  0.00  0.00    -0.532 OA
ENDBRANCH  10  29
TORSDOF 4
