REMARK  0 active torsions:
REMARK  status: ('A' for Active; 'I' for Inactive)
REMARK       I    between atoms: C11_15  and  N4_17 
ROOT
ATOM      1  C1   11 d           3.040   6.379  -3.508  0.00  0.00     0.204 A 
ATOM      2  C2   11 d           2.852   6.513  -4.970  0.00  0.00     0.123 A 
ATOM      3  O1   11 d           3.695   7.141  -5.757  0.00  0.00    -0.319 OA
ATOM      4  C3   11 d           3.228   7.059  -6.978  0.00  0.00     0.142 A 
ATOM      5  C4   11 d           2.036   6.356  -7.009  0.00  0.00     0.027 A 
ATOM      6  C5   11 d           1.788   5.999  -5.698  0.00  0.00     0.043 A 
ATOM      7  N1   11 d           2.128   5.702  -2.753  0.00  0.00    -0.203 NA
ATOM      8  C6   11 d           2.302   5.568  -1.407  0.00  0.00     0.204 A 
ATOM      9  C7   11 d           1.315   4.823  -0.595  0.00  0.00     0.123 A 
ATOM     10  O2   11 d           1.422   4.652   0.703  0.00  0.00    -0.319 OA
ATOM     11  C8   11 d           0.390   3.946   1.092  0.00  0.00     0.142 A 
ATOM     12  C9   11 d          -0.433   3.637   0.024  0.00  0.00     0.027 A 
ATOM     13  C10  11 d           0.169   4.210  -1.079  0.00  0.00     0.043 A 
ATOM     14  N2   11 d           3.399   6.120  -0.819  0.00  0.00    -0.040 NA
ATOM     15  C11  11 d           4.312   6.797  -1.564  0.00  0.00     0.724 A 
ATOM     16  N3   11 d           4.131   6.925  -2.904  0.00  0.00    -0.040 NA
ATOM     17  N4   11 d           5.416   7.345  -0.965  0.00  0.00    -0.231 N 
ATOM     18  H7   11 d           5.550   7.252   0.015  0.00  0.00     0.174 HD
ATOM     19  H8   11 d           6.086   7.837  -1.509  0.00  0.00     0.174 HD
ENDROOT
TORSDOF 0
