REMARK  1 active torsions:
REMARK  status: ('A' for Active; 'I' for Inactive)
REMARK    1  A    between atoms: C14_18  and  S1_19 
ROOT
ATOM      1  C1   11 d          -5.560  -7.918   1.769  0.00  0.00     0.075 A 
ATOM      2  C2   11 d          -6.676  -8.363   2.429  0.00  0.00     0.101 A 
ATOM      3  C3   11 d          -7.387  -9.675   2.408  0.00  0.00     0.212 A 
ATOM      4  C4   11 d          -8.540  -9.568   3.284  0.00  0.00     0.043 A 
ATOM      5  C5   11 d          -8.500  -8.295   3.818  0.00  0.00     0.047 A 
ATOM      6  C6   11 d          -9.479  -7.867   4.725  0.00  0.00     0.030 A 
ATOM      7  C7   11 d         -10.508  -8.762   5.081  0.00  0.00     0.002 A 
ATOM      8  C8   11 d         -10.542 -10.063   4.532  0.00  0.00     0.001 A 
ATOM      9  C9   11 d          -9.549 -10.478   3.623  0.00  0.00     0.018 A 
ATOM     10  N1   11 d          -7.421  -7.597   3.337  0.00  0.00    -0.351 N 
ATOM     11  O1   11 d          -7.060 -10.733   1.822  0.00  0.00    -0.285 OA
ATOM     12  C10  11 d          -4.884  -6.606   2.005  0.00  0.00     0.259 A 
ATOM     13  O2   11 d          -5.257  -5.684   2.811  0.00  0.00    -0.267 OA
ATOM     14  N2   11 d          -3.735  -6.474   1.219  0.00  0.00    -0.322 N 
ATOM     15  C11  11 d          -3.640  -7.682   0.443  0.00  0.00     0.046 A 
ATOM     16  C12  11 d          -4.705  -8.550   0.710  0.00  0.00     0.010 A 
ATOM     17  C13  11 d          -4.807  -9.742  -0.038  0.00  0.00     0.041 A 
ATOM     18  C14  11 d          -3.817 -10.057  -0.991  0.00  0.00     0.081 A 
ATOM     19  C15  11 d          -2.735  -9.185  -1.207  0.00  0.00     0.028 A 
ATOM     20  C16  11 d          -2.646  -7.981  -0.494  0.00  0.00     0.032 A 
ATOM     21  H5   11 d          -7.229  -6.666   3.621  0.00  0.00     0.166 HD
ATOM     22  H6   11 d          -3.056  -5.644   1.187  0.00  0.00     0.169 HD
ENDROOT
BRANCH  18  23
ATOM     23  S1   11 d          -3.913 -11.579  -1.962  0.00  0.00     0.137 S 
ATOM     24  O3   11 d          -3.814 -11.313  -3.480  0.00  0.00    -0.591 OA
ATOM     25  O4   11 d          -5.273 -12.301  -1.842  0.00  0.00    -0.591 OA
ATOM     26  O5   11 d          -2.733 -12.760  -1.639  0.00  0.00    -0.591 OA
ENDBRANCH  18  23
TORSDOF 1
