REMARK  1 active torsions:
REMARK  status: ('A' for Active; 'I' for Inactive)
REMARK    1  A    between atoms: C6_6  and  O1_7 
REMARK       I    between atoms: N1_21  and  C19_22 
ROOT
ATOM      1  C1   11 d          -3.186   4.691  -2.769  0.00  0.00     0.072 C 
ATOM      2  C2   11 d          -4.178   4.326  -3.813  0.00  0.00    -0.000 A 
ATOM      3  C3   11 d          -3.772   3.473  -4.873  0.00  0.00    -0.046 A 
ATOM      4  C4   11 d          -4.725   3.061  -5.825  0.00  0.00     0.011 A 
ATOM      5  C5   11 d          -6.046   3.525  -5.757  0.00  0.00     0.037 A 
ATOM      6  C6   11 d          -6.447   4.366  -4.708  0.00  0.00     0.069 A 
ATOM      7  C8   11 d          -5.507   4.787  -3.755  0.00  0.00     0.050 A 
ATOM      8  C9   11 d          -2.373   2.884  -4.916  0.00  0.00     0.040 C 
ATOM      9  C10  11 d          -1.684   2.855  -3.540  0.00  0.00     0.018 C 
ATOM     10  C11  11 d          -1.762   4.240  -2.872  0.00  0.00     0.070 C 
ATOM     11  C12  11 d          -1.265   4.431  -1.431  0.00  0.00     0.156 C 
ATOM     12  C13  11 d          -1.034   3.134  -0.671  0.00  0.00    -0.032 A 
ATOM     13  C14  11 d          -2.078   2.489   0.029  0.00  0.00     0.012 A 
ATOM     14  C15  11 d          -1.823   1.334   0.785  0.00  0.00     0.043 A 
ATOM     15  C16  11 d          -0.521   0.823   0.869  0.00  0.00     0.116 A 
ATOM     16  F1   11 d          -0.275  -0.303   1.600  0.00  0.00    -0.206 F 
ATOM     17  C17  11 d           0.530   1.473   0.208  0.00  0.00     0.043 A 
ATOM     18  C18  11 d           0.278   2.629  -0.546  0.00  0.00     0.012 A 
ATOM     19  N1   11 d          -2.370   5.245  -0.851  0.00  0.00    -0.228 N 
ATOM     20  C19  11 d          -2.325   5.896   0.416  0.00  0.00     0.236 C 
ATOM     21  O2   11 d          -1.264   5.818   1.131  0.00  0.00    -0.272 OA
ATOM     22  C20  11 d          -3.479   6.716   0.909  0.00  0.00     0.119 C 
ATOM     23  N2   11 d          -3.491   5.320  -1.672  0.00  0.00    -0.172 NA
ENDROOT
BRANCH   6  24
ATOM     24  O1   11 d          -7.767   4.890  -4.686  0.00  0.00    -0.356 OA
ATOM     25  C7   11 d          -8.610   4.032  -3.876  0.00  0.00     0.210 C 
ENDBRANCH   6  24
TORSDOF 1
