REMARK  4 active torsions:
REMARK  status: ('A' for Active; 'I' for Inactive)
REMARK    1  A    between atoms: N2_6  and  N3_7 
REMARK    2  A    between atoms: C5_8  and  C6_9 
REMARK    3  A    between atoms: C9_13  and  N4_14 
REMARK    4  A    between atoms: C11_18  and  O4_19 
ROOT
ATOM      1  C6   11 d          -7.374   7.115  -4.382  0.00  0.00     0.095 A 
ATOM      2  O1   11 d          -7.797   6.221  -3.523  0.00  0.00    -0.308 OA
ATOM      3  C7   11 d          -9.093   6.366  -3.383  0.00  0.00     0.088 A 
ATOM      4  C8   11 d          -9.872   5.547  -2.407  0.00  0.00     0.031 A 
ATOM      5  C9   11 d         -11.293   5.436  -2.405  0.00  0.00     0.118 A 
ATOM      6  C10  11 d         -11.928   4.705  -1.376  0.00  0.00     0.073 A 
ATOM      7  C11  11 d         -11.183   4.091  -0.361  0.00  0.00     0.070 A 
ATOM      8  C13  11 d          -9.786   4.133  -0.408  0.00  0.00     0.038 A 
ATOM      9  C14  11 d          -9.138   4.864  -1.410  0.00  0.00     0.019 A 
ATOM     10  C15  11 d          -9.545   7.406  -4.190  0.00  0.00     0.041 A 
ATOM     11  C16  11 d          -8.426   7.886  -4.842  0.00  0.00     0.041 A 
ENDROOT
BRANCH   1  12
ATOM     12  C5   11 d          -5.955   7.294  -4.743  0.00  0.00     0.176 C 
ATOM     13  N3   11 d          -5.043   6.483  -4.263  0.00  0.00    -0.173 NA
BRANCH  13  14
ATOM     14  N2   11 d          -3.726   6.773  -4.589  0.00  0.00    -0.191 N 
ATOM     15  C4   11 d          -3.058   5.908  -5.427  0.00  0.00     0.239 A 
ATOM     16  N1   11 d          -1.748   6.120  -5.756  0.00  0.00    -0.234 NA
ATOM     17  C3   11 d          -1.106   7.192  -5.228  0.00  0.00     0.115 A 
ATOM     18  C2   11 d          -1.732   8.085  -4.377  0.00  0.00     0.077 A 
ATOM     19  S1   11 d           0.319   7.605  -5.430  0.00  0.00    -0.073 SA
ATOM     20  C1   11 d          -3.078   7.872  -4.054  0.00  0.00     0.282 A 
ATOM     21  C18  11 d          -0.841   9.101  -4.003  0.00  0.00    -0.026 A 
ATOM     22  O5   11 d          -3.686   8.671  -3.295  0.00  0.00    -0.265 OA
ATOM     23  C17  11 d           0.410   8.837  -4.570  0.00  0.00    -0.008 A 
ATOM     24  C19  11 d          -1.073  10.242  -3.045  0.00  0.00     0.041 C 
ATOM     25  C22  11 d           1.622   9.710  -4.383  0.00  0.00     0.047 C 
ATOM     26  C21  11 d           1.253  11.050  -3.718  0.00  0.00     0.005 C 
ATOM     27  C20  11 d           0.252  10.863  -2.561  0.00  0.00     0.005 C 
ENDBRANCH  13  14
ENDBRANCH   1  12
BRANCH   5  28
ATOM     28  N4   11 d         -12.078   5.985  -3.405  0.00  0.00    -0.115 N 
ATOM     29  O2   11 d         -11.973   5.570  -4.467  0.00  0.00    -0.532 OA
ATOM     30  O3   11 d         -13.168   6.541  -3.097  0.00  0.00    -0.532 OA
ENDBRANCH   5  28
BRANCH   7  31
ATOM     31  O4   11 d         -11.837   3.302   0.621  0.00  0.00    -0.356 OA
ATOM     32  C12  11 d         -12.086   4.105   1.802  0.00  0.00     0.210 C 
ENDBRANCH   7  31
TORSDOF 4
