REMARK  0 active torsions:
REMARK  status: ('A' for Active; 'I' for Inactive)
ROOT
ATOM      1  C1   11 d           4.626   4.055   2.272  0.00  0.00     0.262 A 
ATOM      2  N1   11 d           5.347   3.845   1.066  0.00  0.00    -0.251 N 
ATOM      3  C2   11 d           4.653   2.785   0.437  0.00  0.00     0.233 A 
ATOM      4  O1   11 d           4.964   2.264  -0.685  0.00  0.00    -0.273 OA
ATOM      5  C3   11 d           3.469   2.302   1.191  0.00  0.00     0.146 A 
ATOM      6  C4   11 d           3.445   3.139   2.488  0.00  0.00     0.289 A 
ATOM      7  N2   11 d           2.110   3.804   2.791  0.00  0.00    -0.054 N 
ATOM      8  C5   11 d           2.147   4.672   4.029  0.00  0.00     0.262 C 
ATOM      9  C6   11 d           0.764   5.196   4.433  0.00  0.00     0.195 C 
ATOM     10  O2   11 d          -0.157   4.090   4.575  0.00  0.00    -0.388 OA
ATOM     11  C7   11 d          -0.324   3.374   3.329  0.00  0.00     0.195 C 
ATOM     12  C8   11 d           1.019   2.763   2.925  0.00  0.00     0.262 C 
ATOM     13  C9   11 d           6.563   4.574   0.571  0.00  0.00     0.045 A 
ATOM     14  C10  11 d           7.188   4.236  -0.659  0.00  0.00     0.037 A 
ATOM     15  C11  11 d           8.316   4.930  -1.143  0.00  0.00    -0.060 A 
ATOM     16  C12  11 d           8.882   5.947  -0.363  0.00  0.00     0.007 A 
ATOM     17  C13  11 d           8.292   6.306   0.851  0.00  0.00     0.003 A 
ATOM     18  C14  11 d           7.150   5.635   1.309  0.00  0.00     0.030 A 
ATOM     19  C15  11 d           9.011   4.470  -2.397  0.00  0.00     0.048 C 
ATOM     20  O3   11 d           4.933   4.937   3.141  0.00  0.00    -0.270 OA
ATOM     21  H4   11 d           1.860   4.443   1.962  0.00  0.00     0.281 HD
ENDROOT
TORSDOF 0
