REMARK  2 active torsions:
REMARK  status: ('A' for Active; 'I' for Inactive)
REMARK    1  A    between atoms: N1_2  and  C2_3 
REMARK    2  A    between atoms: C2_3  and  C3_4 
ROOT
ATOM      1  C1   11 d           1.901   1.506  -2.455  0.00  0.00     0.250 C 
ATOM      2  N1   11 d           0.948   1.488  -3.506  0.00  0.00    -0.345 N 
ATOM      3  C9   11 d          -0.047   2.604  -3.569  0.00  0.00     0.153 C 
ATOM      4  C10  11 d          -0.618   2.840  -2.165  0.00  0.00     0.253 C 
ATOM      5  N2   11 d           0.477   3.057  -1.167  0.00  0.00    -0.061 N 
ATOM      6  C11  11 d           1.447   1.914  -1.072  0.00  0.00     0.273 C 
ATOM      7  C12  11 d           2.616   2.261  -0.132  0.00  0.00     0.050 C 
ATOM      8  O1   11 d           3.139   1.326  -2.719  0.00  0.00    -0.271 OA
ATOM      9  H12  11 d           1.005   3.957  -1.424  0.00  0.00     0.278 HD
ATOM     10  H13  11 d           0.033   3.218  -0.203  0.00  0.00     0.278 HD
ENDROOT
BRANCH   2  11
ATOM     11  C2   11 d           0.993   0.359  -4.499  0.00  0.00     0.164 C 
BRANCH  11  12
ATOM     12  C3   11 d          -0.339  -0.073  -5.068  0.00  0.00    -0.040 A 
ATOM     13  C4   11 d          -0.509  -0.175  -6.465  0.00  0.00     0.009 A 
ATOM     14  C5   11 d          -1.750  -0.541  -7.006  0.00  0.00     0.001 A 
ATOM     15  C6   11 d          -2.839  -0.790  -6.160  0.00  0.00     0.000 A 
ATOM     16  C7   11 d          -2.686  -0.679  -4.770  0.00  0.00     0.001 A 
ATOM     17  C8   11 d          -1.441  -0.326  -4.225  0.00  0.00     0.009 A 
ENDBRANCH  11  12
ENDBRANCH   2  11
TORSDOF 2
