REMARK  5 active torsions:
REMARK  status: ('A' for Active; 'I' for Inactive)
REMARK    1  A    between atoms: C1_1  and  N1_2 
REMARK    2  A    between atoms: N2_9  and  C6_10 
REMARK    3  A    between atoms: C6_10  and  C7_11 
REMARK    4  A    between atoms: N3_19  and  C15_20 
REMARK    5  A    between atoms: C15_20  and  C16_21 
ROOT
ATOM      1  C1   11 d           1.685  -9.850  -4.358  0.00  0.00     0.102 A 
ATOM      2  C2   11 d           1.037 -10.838  -3.587  0.00  0.00     0.037 A 
ATOM      3  C3   11 d          -0.241 -11.302  -3.931  0.00  0.00     0.013 A 
ATOM      4  C4   11 d          -0.932 -10.806  -5.062  0.00  0.00    -0.000 A 
ATOM      5  C5   11 d          -2.351 -11.322  -5.389  0.00  0.00     0.421 C 
ATOM      6  N2   11 d          -3.118 -10.501  -6.416  0.00  0.00    -0.032 N 
ATOM      7  C13  11 d          -4.539 -10.574  -5.976  0.00  0.00     0.266 C 
ATOM      8  C14  11 d          -4.440 -10.609  -4.462  0.00  0.00     0.266 C 
ATOM      9  N3   11 d          -3.268 -11.493  -4.175  0.00  0.00    -0.032 N 
ATOM     10  C22  11 d          -0.275  -9.812  -5.831  0.00  0.00     0.013 A 
ATOM     11  C23  11 d           1.004  -9.347  -5.485  0.00  0.00     0.037 A 
ATOM     12  H4   11 d          -2.853  -9.458  -6.347  0.00  0.00     0.283 HD
ATOM     13  H16  11 d          -2.817 -11.129  -3.265  0.00  0.00     0.283 HD
ENDROOT
BRANCH   6  14
ATOM     14  C6   11 d          -2.924 -10.946  -7.844  0.00  0.00     0.276 C 
BRANCH  14  15
ATOM     15  C7   11 d          -3.639 -10.031  -8.812  0.00  0.00    -0.033 A 
ATOM     16  C8   11 d          -4.875 -10.413  -9.375  0.00  0.00     0.009 A 
ATOM     17  C9   11 d          -5.509  -9.590 -10.318  0.00  0.00     0.001 A 
ATOM     18  C10  11 d          -4.903  -8.395 -10.727  0.00  0.00     0.000 A 
ATOM     19  C11  11 d          -3.653  -8.029 -10.207  0.00  0.00     0.001 A 
ATOM     20  C12  11 d          -3.015  -8.851  -9.265  0.00  0.00     0.009 A 
ENDBRANCH  14  15
ENDBRANCH   6  14
BRANCH   9  21
ATOM     21  C15  11 d          -3.726 -12.915  -3.926  0.00  0.00     0.276 C 
BRANCH  21  22
ATOM     22  C16  11 d          -2.636 -13.784  -3.346  0.00  0.00    -0.033 A 
ATOM     23  C17  11 d          -2.426 -13.805  -1.950  0.00  0.00     0.009 A 
ATOM     24  C18  11 d          -1.456 -14.650  -1.392  0.00  0.00     0.001 A 
ATOM     25  C19  11 d          -0.711 -15.505  -2.215  0.00  0.00     0.000 A 
ATOM     26  C20  11 d          -0.948 -15.529  -3.597  0.00  0.00     0.001 A 
ATOM     27  C21  11 d          -1.919 -14.686  -4.159  0.00  0.00     0.009 A 
ENDBRANCH  21  22
ENDBRANCH   9  21
BRANCH   1  28
ATOM     28  N1   11 d           2.956  -9.381  -4.021  0.00  0.00    -0.116 N 
ATOM     29  O1   11 d           3.535  -9.844  -3.148  0.00  0.00    -0.532 OA
ATOM     30  O2   11 d           3.553  -8.546  -4.755  0.00  0.00    -0.532 OA
ENDBRANCH   1  28
TORSDOF 5
