REMARK  4 active torsions:
REMARK  status: ('A' for Active; 'I' for Inactive)
REMARK       I    between atoms: C1_1  and  N1_2 
REMARK    1  A    between atoms: C1_1  and  O2_20 
REMARK    2  A    between atoms: C4_5  and  N2_6 
REMARK    3  A    between atoms: N2_6  and  C5_7 
REMARK    4  A    between atoms: O2_20  and  C17_21 
ROOT
ATOM      1  N2   11 d          -4.855   0.138  -9.944  0.00  0.00    -0.066 N 
ATOM      2  H6   11 d          -4.062   0.855  -9.974  0.00  0.00     0.278 HD
ATOM      3  H7   11 d          -4.387  -0.812 -10.113  0.00  0.00     0.278 HD
ENDROOT
BRANCH   1   4
ATOM      4  C4   11 d          -5.420   0.108  -8.546  0.00  0.00     0.189 C 
ATOM      5  C3   11 d          -4.316  -0.357  -7.555  0.00  0.00     0.053 C 
ATOM      6  C2   11 d          -4.757  -0.301  -6.091  0.00  0.00     0.130 C 
ATOM      7  N1   11 d          -5.282   1.065  -5.832  0.00  0.00    -0.328 N 
ATOM      8  C1   11 d          -4.701   1.907  -4.855  0.00  0.00     0.362 C 
ATOM      9  C16  11 d          -6.437   1.523  -6.646  0.00  0.00     0.130 C 
ATOM     10  O1   11 d          -4.659   1.533  -3.631  0.00  0.00    -0.238 OA
ATOM     11  C15  11 d          -6.029   1.473  -8.121  0.00  0.00     0.053 C 
BRANCH   8  12
ATOM     12  O2   11 d          -4.245   3.192  -5.265  0.00  0.00    -0.304 OA
BRANCH  12  13
ATOM     13  C17  11 d          -4.439   4.208  -4.245  0.00  0.00     0.176 C 
ATOM     14  C18  11 d          -4.424   5.580  -4.902  0.00  0.00     0.034 C 
ENDBRANCH  12  13
ENDBRANCH   8  12
ENDBRANCH   1   4
BRANCH   1  15
ATOM     15  C5   11 d          -5.848   0.391 -11.059  0.00  0.00     0.194 C 
ATOM     16  C6   11 d          -5.573  -0.484 -12.327  0.00  0.00     0.017 C 
ATOM     17  C7   11 d          -4.263  -0.035 -13.025  0.00  0.00     0.011 C 
ATOM     18  C13  11 d          -6.752  -0.339 -13.322  0.00  0.00     0.011 C 
ATOM     19  C8   11 d          -4.392   1.438 -13.482  0.00  0.00    -0.013 C 
ATOM     20  C9   11 d          -4.647   2.342 -12.257  0.00  0.00     0.011 C 
ATOM     21  C14  11 d          -5.580   1.576 -14.463  0.00  0.00     0.009 C 
ATOM     22  C10  11 d          -5.940   1.884 -11.529  0.00  0.00     0.017 C 
ATOM     23  C11  11 d          -7.129   2.028 -12.515  0.00  0.00     0.011 C 
ATOM     24  C12  11 d          -6.887   1.138 -13.759  0.00  0.00    -0.013 C 
ENDBRANCH   1  15
TORSDOF 4
