REMARK  5 active torsions:
REMARK  status: ('A' for Active; 'I' for Inactive)
REMARK    1  A    between atoms: C6_6  and  O1_7 
REMARK    2  A    between atoms: N1_21  and  C19_22 
REMARK    3  A    between atoms: C20_23  and  C21_24 
REMARK    4  A    between atoms: C21_24  and  O3_26 
REMARK    5  A    between atoms: O3_26  and  C22_27 
ROOT
ATOM      1  C1   11 d          -3.136   4.765  -2.737  0.00  0.00     0.072 C 
ATOM      2  C2   11 d          -4.100   4.471  -3.828  0.00  0.00    -0.000 A 
ATOM      3  C3   11 d          -3.724   3.547  -4.835  0.00  0.00    -0.046 A 
ATOM      4  C4   11 d          -4.658   3.189  -5.826  0.00  0.00     0.011 A 
ATOM      5  C5   11 d          -5.934   3.772  -5.842  0.00  0.00     0.037 A 
ATOM      6  C6   11 d          -6.310   4.678  -4.840  0.00  0.00     0.069 A 
ATOM      7  C8   11 d          -5.384   5.049  -3.853  0.00  0.00     0.050 A 
ATOM      8  C9   11 d          -2.391   2.825  -4.769  0.00  0.00     0.040 C 
ATOM      9  C10  11 d          -1.780   2.801  -3.356  0.00  0.00     0.018 C 
ATOM     10  C11  11 d          -1.754   4.219  -2.746  0.00  0.00     0.070 C 
ATOM     11  C12  11 d          -1.374   4.473  -1.269  0.00  0.00     0.153 C 
ATOM     12  C13  11 d          -1.058   3.211  -0.464  0.00  0.00    -0.033 A 
ATOM     13  C14  11 d          -1.840   2.778   0.634  0.00  0.00     0.012 A 
ATOM     14  C15  11 d          -1.501   1.617   1.344  0.00  0.00     0.043 A 
ATOM     15  C16  11 d          -0.377   0.868   0.973  0.00  0.00     0.116 A 
ATOM     16  F1   11 d          -0.050  -0.262   1.663  0.00  0.00    -0.206 F 
ATOM     17  C17  11 d           0.411   1.283  -0.107  0.00  0.00     0.043 A 
ATOM     18  C18  11 d           0.076   2.445  -0.817  0.00  0.00     0.012 A 
ATOM     19  N1   11 d          -2.467   5.260  -0.789  0.00  0.00    -0.264 N 
ATOM     20  N2   11 d          -3.462   5.381  -1.647  0.00  0.00    -0.175 NA
ENDROOT
BRANCH  19  21
ATOM     21  C19  11 d          -2.556   5.891   0.479  0.00  0.00     0.033 C 
ATOM     22  C20  11 d          -1.448   6.065   1.261  0.00  0.00     0.108 C 
ATOM     23  C24  11 d          -3.923   6.313   0.991  0.00  0.00     0.070 C 
BRANCH  22  24
ATOM     24  C21  11 d          -1.351   6.694   2.606  0.00  0.00     0.284 C 
ATOM     25  O2   11 d          -0.251   6.639   3.213  0.00  0.00    -0.260 OA
BRANCH  24  26
ATOM     26  O3   11 d          -2.464   7.282   3.265  0.00  0.00    -0.318 OA
BRANCH  26  27
ATOM     27  C22  11 d          -2.354   8.726   3.232  0.00  0.00     0.174 C 
ATOM     28  C23  11 d          -3.620   9.324   3.823  0.00  0.00     0.034 C 
ENDBRANCH  26  27
ENDBRANCH  24  26
ENDBRANCH  22  24
ENDBRANCH  19  21
BRANCH   6  29
ATOM     29  O1   11 d          -7.583   5.305  -4.895  0.00  0.00    -0.356 OA
ATOM     30  C7   11 d          -8.534   4.530  -4.122  0.00  0.00     0.210 C 
ENDBRANCH   6  29
TORSDOF 5
