REMARK  5 active torsions:
REMARK  status: ('A' for Active; 'I' for Inactive)
REMARK    1  A    between atoms: N1_9  and  C15_18 
REMARK    2  A    between atoms: C15_18  and  C16_19 
REMARK    3  A    between atoms: C16_19  and  O2_21 
REMARK    4  A    between atoms: O2_21  and  C17_22 
REMARK    5  A    between atoms: C18_23  and  C19_24 
ROOT
ATOM      1  C1   11 d           2.857   4.710  -7.161  0.00  0.00     0.121 A 
ATOM      2  C2   11 d           3.540   4.702  -5.843  0.00  0.00     0.009 A 
ATOM      3  C3   11 d           4.708   3.938  -5.663  0.00  0.00     0.018 A 
ATOM      4  C4   11 d           5.368   3.934  -4.424  0.00  0.00     0.043 A 
ATOM      5  C5   11 d           4.868   4.697  -3.360  0.00  0.00     0.116 A 
ATOM      6  F1   11 d           5.512   4.692  -2.157  0.00  0.00    -0.206 F 
ATOM      7  C6   11 d           3.711   5.470  -3.534  0.00  0.00     0.043 A 
ATOM      8  C7   11 d           3.051   5.478  -4.773  0.00  0.00     0.018 A 
ATOM      9  N1   11 d           1.574   4.298  -7.405  0.00  0.00    -0.321 N 
ATOM     10  C8   11 d           1.351   4.481  -8.739  0.00  0.00     0.063 A 
ATOM     11  C9   11 d           2.512   5.004  -9.292  0.00  0.00     0.062 A 
ATOM     12  N2   11 d           3.435   5.130  -8.318  0.00  0.00    -0.335 N 
ATOM     13  C10  11 d           4.759   5.746  -8.458  0.00  0.00     0.158 C 
ATOM     14  C11  11 d           2.612   5.304 -10.660  0.00  0.00     0.032 A 
ATOM     15  C12  11 d           1.500   5.055 -11.483  0.00  0.00     0.002 A 
ATOM     16  C13  11 d           0.322   4.508 -10.937  0.00  0.00     0.002 A 
ATOM     17  C14  11 d           0.240   4.213  -9.562  0.00  0.00     0.032 A 
ENDROOT
BRANCH   9  18
ATOM     18  C15  11 d           0.694   3.752  -6.340  0.00  0.00     0.241 C 
BRANCH  18  19
ATOM     19  C16  11 d          -0.727   3.346  -6.617  0.00  0.00     0.277 C 
ATOM     20  O1   11 d          -1.568   4.207  -6.986  0.00  0.00    -0.263 OA
BRANCH  19  21
ATOM     21  O2   11 d          -1.139   2.004  -6.374  0.00  0.00    -0.314 OA
BRANCH  21  22
ATOM     22  C17  11 d          -1.648   1.328  -7.560  0.00  0.00     0.136 C 
ATOM     23  C18  11 d          -2.707   0.268  -7.134  0.00  0.00     0.018 C 
ATOM     24  C22  11 d          -2.006  -0.936  -6.454  0.00  0.00     0.008 C 
ATOM     25  C23  11 d          -0.897  -1.547  -7.321  0.00  0.00     0.005 C 
ATOM     26  C24  11 d           0.168  -0.523  -7.748  0.00  0.00    -0.016 C 
ATOM     27  C25  11 d          -0.499   0.711  -8.387  0.00  0.00     0.037 C 
ATOM     28  C26  11 d           1.146  -0.173  -6.616  0.00  0.00     0.010 C 
BRANCH  23  29
ATOM     29  C19  11 d          -3.858   0.873  -6.257  0.00  0.00    -0.016 C 
ATOM     30  C20  11 d          -4.891  -0.172  -5.792  0.00  0.00     0.010 C 
ATOM     31  C21  11 d          -4.612   2.013  -6.970  0.00  0.00     0.010 C 
ENDBRANCH  23  29
ENDBRANCH  21  22
ENDBRANCH  19  21
ENDBRANCH  18  19
ENDBRANCH   9  18
TORSDOF 5
