REMARK  1 active torsions:
REMARK  status: ('A' for Active; 'I' for Inactive)
REMARK       I    between atoms: C1_1  and  N1_2 
REMARK       I    between atoms: C1_1  and  N3_15 
REMARK    1  A    between atoms: N3_15  and  C12_16 
ROOT
ATOM      1  C1   11 d           0.035  -0.572  -0.945  0.00  0.00     0.323 C 
ATOM      2  N1   11 d           1.121  -1.438  -0.656  0.00  0.00    -0.331 N 
ATOM      3  C2   11 d           2.302  -0.916   0.084  0.00  0.00     0.155 C 
ATOM      4  C3   11 d           3.559  -1.258  -0.714  0.00  0.00     0.255 C 
ATOM      5  N2   11 d           3.676  -2.721  -1.081  0.00  0.00    -0.064 N 
ATOM      6  C4   11 d           4.302  -3.599   0.011  0.00  0.00     0.188 C 
ATOM      7  C5   11 d           5.370  -4.607  -0.504  0.00  0.00     0.033 C 
ATOM      8  C6   11 d           4.784  -5.928  -1.014  0.00  0.00     0.002 C 
ATOM      9  C7   11 d           3.926  -6.601   0.062  0.00  0.00     0.000 C 
ATOM     10  C8   11 d           2.822  -5.676   0.586  0.00  0.00     0.002 C 
ATOM     11  C9   11 d           3.370  -4.308   1.033  0.00  0.00     0.033 C 
ATOM     12  C10  11 d           2.425  -3.213  -1.774  0.00  0.00     0.255 C 
ATOM     13  C11  11 d           1.099  -2.865  -1.078  0.00  0.00     0.155 C 
ATOM     14  O1   11 d          -0.570   0.012   0.019  0.00  0.00    -0.247 OA
ATOM     15  N3   11 d          -0.361  -0.364  -2.292  0.00  0.00    -0.308 N 
ATOM     16  H5   11 d           4.407  -2.701  -1.869  0.00  0.00     0.280 HD
ATOM     17  H21  11 d           0.149  -0.864  -3.091  0.00  0.00     0.170 HD
ENDROOT
BRANCH  15  18
ATOM     18  C12  11 d          -1.472   0.526  -2.640  0.00  0.00     0.047 A 
ATOM     19  C13  11 d          -1.450   1.925  -2.397  0.00  0.00     0.001 A 
ATOM     20  C14  11 d          -2.583   2.712  -2.756  0.00  0.00    -0.024 A 
ATOM     21  C21  11 d          -0.324   2.570  -1.839  0.00  0.00     0.014 A 
ATOM     22  C15  11 d          -3.703   2.100  -3.351  0.00  0.00     0.012 A 
ATOM     23  C18  11 d          -2.575   4.102  -2.529  0.00  0.00     0.012 A 
ATOM     24  C16  11 d          -3.703   0.724  -3.604  0.00  0.00     0.003 A 
ATOM     25  C17  11 d          -2.592  -0.056  -3.257  0.00  0.00     0.030 A 
ATOM     26  C19  11 d          -1.453   4.718  -1.962  0.00  0.00     0.001 A 
ATOM     27  C20  11 d          -0.329   3.955  -1.621  0.00  0.00     0.001 A 
ENDBRANCH  15  18
TORSDOF 1
