REMARK  1 active torsions:
REMARK  status: ('A' for Active; 'I' for Inactive)
REMARK    1  A    between atoms: C16_19  and  O2_20 
ROOT
ATOM      1  C1   11 d           1.482  -4.724   6.115  0.00  0.00     0.037 C 
ATOM      2  C2   11 d           0.254  -3.911   5.835  0.00  0.00     0.160 C 
ATOM      3  O1   11 d           0.138  -3.342   4.721  0.00  0.00    -0.293 OA
ATOM      4  C3   11 d          -0.951  -3.972   6.737  0.00  0.00     0.084 C 
ATOM      5  C4   11 d          -0.865  -5.114   7.753  0.00  0.00     0.014 C 
ATOM      6  C5   11 d          -0.167  -6.336   7.150  0.00  0.00     0.058 C 
ATOM      7  C6   11 d           1.225  -5.987   6.623  0.00  0.00     0.022 C 
ATOM      8  N1   11 d           2.151  -7.024   6.738  0.00  0.00    -0.357 N 
ATOM      9  C7   11 d           3.102  -7.283   5.775  0.00  0.00     0.059 A 
ATOM     10  C8   11 d           3.977  -6.276   5.337  0.00  0.00     0.055 A 
ATOM     11  C9   11 d           4.947  -6.558   4.360  0.00  0.00     0.031 A 
ATOM     12  C10  11 d           5.038  -7.846   3.811  0.00  0.00     0.002 A 
ATOM     13  C11  11 d           4.171  -8.858   4.252  0.00  0.00     0.002 A 
ATOM     14  C12  11 d           3.210  -8.579   5.235  0.00  0.00     0.032 A 
ATOM     15  N2   11 d           3.953  -5.053   5.958  0.00  0.00    -0.375 N 
ATOM     16  C13  11 d           2.881  -4.125   5.781  0.00  0.00     0.154 C 
ATOM     17  C14  11 d           3.106  -2.794   6.556  0.00  0.00    -0.028 A 
ATOM     18  C15  11 d           2.332  -1.655   6.214  0.00  0.00     0.046 A 
ATOM     19  C16  11 d           2.482  -0.422   6.868  0.00  0.00     0.068 A 
ATOM     20  C18  11 d           3.468  -0.272   7.846  0.00  0.00     0.037 A 
ATOM     21  C19  11 d           4.258  -1.365   8.208  0.00  0.00     0.003 A 
ATOM     22  C20  11 d           4.082  -2.606   7.579  0.00  0.00     0.010 A 
ATOM     23  H7   11 d           2.122  -7.621   7.534  0.00  0.00     0.166 HD
ATOM     24  H12  11 d           4.739  -4.869   6.526  0.00  0.00     0.160 HD
ENDROOT
BRANCH  19  25
ATOM     25  O2   11 d           1.753   0.712   6.422  0.00  0.00    -0.356 OA
ATOM     26  C17  11 d           0.530   0.834   7.189  0.00  0.00     0.210 C 
ENDBRANCH  19  25
TORSDOF 1
