REMARK  3 active torsions:
REMARK  status: ('A' for Active; 'I' for Inactive)
REMARK    1  A    between atoms: C1_1  and  C2_4 
REMARK    2  A    between atoms: C2_4  and  C3_5 
REMARK    3  A    between atoms: C3_5  and  N1_6 
ROOT
ATOM      1  N1   11 d           4.780   4.484   2.359  0.00  0.00    -0.343 N 
ATOM      2  C4   11 d           6.066   4.024   2.277  0.00  0.00     0.052 A 
ATOM      3  C5   11 d           6.106   2.650   2.459  0.00  0.00     0.033 A 
ATOM      4  S1   11 d           4.711   2.162   2.670  0.00  0.00    -0.075 SA
ATOM      5  C6   11 d           3.922   3.439   2.563  0.00  0.00     0.050 A 
ATOM      6  C7   11 d           2.436   3.530   2.759  0.00  0.00     0.077 C 
ATOM      7  C8   11 d           7.301   1.922   2.440  0.00  0.00     0.021 A 
ATOM      8  C9   11 d           8.499   2.629   2.213  0.00  0.00     0.002 A 
ATOM      9  C10  11 d           8.477   4.031   2.023  0.00  0.00     0.002 A 
ATOM     10  C11  11 d           7.256   4.740   2.058  0.00  0.00     0.031 A 
ENDROOT
BRANCH   1  11
ATOM     11  C3   11 d           4.367   5.880   2.126  0.00  0.00     0.140 C 
BRANCH  11  12
ATOM     12  C2   11 d           4.452   6.704   3.410  0.00  0.00     0.133 C 
BRANCH  12  13
ATOM     13  C1   11 d           4.036   8.120   3.156  0.00  0.00     0.174 C 
ATOM     14  O1   11 d           4.940   9.023   2.868  0.00  0.00    -0.648 OA
ATOM     15  O2   11 d           2.804   8.492   3.392  0.00  0.00    -0.648 OA
ENDBRANCH  12  13
ENDBRANCH  11  12
ENDBRANCH   1  11
TORSDOF 3
