REMARK  2 active torsions:
REMARK  status: ('A' for Active; 'I' for Inactive)
REMARK       I    between atoms: C1_1  and  N1_2 
REMARK       I    between atoms: C1_1  and  N2_17 
REMARK    1  A    between atoms: N2_17  and  C14_18 
REMARK    2  A    between atoms: C14_18  and  C15_19 
ROOT
ATOM      1  C1   11 d           3.873   4.941   0.999  0.00  0.00     0.328 C 
ATOM      2  N1   11 d           3.313   5.331  -0.256  0.00  0.00    -0.262 N 
ATOM      3  C2   11 d           3.199   6.730  -0.658  0.00  0.00     0.061 A 
ATOM      4  C3   11 d           1.908   7.190  -0.990  0.00  0.00     0.033 A 
ATOM      5  S1   11 d           0.502   6.020  -0.988  0.00  0.00    -0.086 SA
ATOM      6  C4   11 d           1.447   4.609  -1.663  0.00  0.00     0.033 A 
ATOM      7  C5   11 d           2.782   4.409  -1.256  0.00  0.00     0.061 A 
ATOM      8  C6   11 d           3.564   3.408  -1.858  0.00  0.00     0.031 A 
ATOM      9  C7   11 d           2.997   2.574  -2.834  0.00  0.00     0.002 A 
ATOM     10  C8   11 d           1.659   2.752  -3.220  0.00  0.00     0.002 A 
ATOM     11  C9   11 d           0.885   3.772  -2.640  0.00  0.00     0.021 A 
ATOM     12  C10  11 d           1.724   8.527  -1.376  0.00  0.00     0.021 A 
ATOM     13  C11  11 d           2.826   9.396  -1.444  0.00  0.00     0.002 A 
ATOM     14  C12  11 d           4.115   8.927  -1.141  0.00  0.00     0.002 A 
ATOM     15  C13  11 d           4.306   7.590  -0.756  0.00  0.00     0.031 A 
ATOM     16  O1   11 d           4.323   5.848   1.786  0.00  0.00    -0.246 OA
ATOM     17  N2   11 d           3.952   3.577   1.401  0.00  0.00    -0.337 N 
ATOM     18  H9   11 d           3.566   2.810   0.761  0.00  0.00     0.164 HD
ENDROOT
BRANCH  17  19
ATOM     19  C14  11 d           4.576   3.220   2.714  0.00  0.00     0.183 C 
BRANCH  19  20
ATOM     20  C15  11 d           4.769   1.743   2.954  0.00  0.00     0.051 A 
ATOM     21  N3   11 d           4.525   1.256   4.209  0.00  0.00    -0.264 NA
ATOM     22  C16  11 d           4.618  -0.070   4.511  0.00  0.00     0.117 A 
ATOM     23  C17  11 d           4.944  -0.993   3.510  0.00  0.00     0.019 A 
ATOM     24  C18  11 d           5.165  -0.534   2.205  0.00  0.00     0.003 A 
ATOM     25  C19  11 d           5.072   0.836   1.918  0.00  0.00     0.029 A 
ENDBRANCH  19  20
ENDBRANCH  17  19
TORSDOF 2
