REMARK  5 active torsions:
REMARK  status: ('A' for Active; 'I' for Inactive)
REMARK    1  A    between atoms: C1_1  and  N7_23 
REMARK       I    between atoms: C4_5  and  N3_7 
REMARK    2  A    between atoms: N3_7  and  C5_8 
REMARK    3  A    between atoms: C8_11  and  N4_14 
REMARK    4  A    between atoms: N7_23  and  C17_24 
REMARK    5  A    between atoms: C17_24  and  C18_25 
ROOT
ATOM      1  C1   11 d           0.372  -2.558   4.065  0.00  0.00     0.176 A 
ATOM      2  C2   11 d           0.171  -3.177   5.307  0.00  0.00     0.151 A 
ATOM      3  C3   11 d          -0.196  -2.423   6.395  0.00  0.00     0.183 A 
ATOM      4  N1   11 d          -0.373  -1.078   6.313  0.00  0.00    -0.042 NA
ATOM      5  C4   11 d          -0.182  -0.458   5.109  0.00  0.00     0.726 A 
ATOM      6  N2   11 d           0.185  -1.199   4.010  0.00  0.00    -0.043 NA
ATOM      7  N3   11 d          -0.388   0.908   5.022  0.00  0.00    -0.218 N 
ATOM      8  N5   11 d          -0.346  -3.248   7.447  0.00  0.00    -0.319 N 
ATOM      9  C11  11 d          -0.043  -4.499   6.999  0.00  0.00     0.212 A 
ATOM     10  N6   11 d           0.267  -4.468   5.679  0.00  0.00    -0.236 NA
ATOM     11  C12  11 d          -0.666  -2.817   8.823  0.00  0.00     0.092 C 
ATOM     12  C13  11 d          -0.229  -3.783   9.930  0.00  0.00     0.026 C 
ATOM     13  C14  11 d          -1.410  -4.728  10.167  0.00  0.00     0.002 C 
ATOM     14  C15  11 d          -2.575  -4.169   9.355  0.00  0.00     0.002 C 
ATOM     15  C16  11 d          -2.175  -2.740   9.027  0.00  0.00     0.026 C 
ATOM     16  H1   11 d          -0.569   1.390   5.873  0.00  0.00     0.178 HD
ENDROOT
BRANCH   7  17
ATOM     17  C5   11 d          -0.326   1.626   3.794  0.00  0.00     0.099 C 
ATOM     18  C6   11 d          -0.183   3.149   4.014  0.00  0.00     0.027 C 
ATOM     19  C7   11 d          -1.469   3.801   4.553  0.00  0.00     0.035 C 
ATOM     20  C8   11 d          -2.701   3.471   3.681  0.00  0.00     0.183 C 
ATOM     21  C9   11 d          -2.839   1.947   3.477  0.00  0.00     0.035 C 
ATOM     22  C10  11 d          -1.553   1.337   2.903  0.00  0.00     0.027 C 
BRANCH  20  23
ATOM     23  N4   11 d          -3.946   4.045   4.268  0.00  0.00    -0.075 N 
ATOM     24  H12  11 d          -4.145   3.624   5.232  0.00  0.00     0.274 HD
ATOM     25  H13  11 d          -3.857   5.107   4.374  0.00  0.00     0.274 HD
ATOM     26  H14  11 d          -4.787   3.847   3.634  0.00  0.00     0.274 HD
ENDBRANCH  20  23
ENDBRANCH   7  17
BRANCH   1  27
ATOM     27  N7   11 d           0.729  -3.280   2.933  0.00  0.00    -0.368 N 
ATOM     28  H25  11 d           0.848  -4.258   3.035  0.00  0.00     0.161 HD
BRANCH  27  29
ATOM     29  C17  11 d           0.918  -2.648   1.677  0.00  0.00     0.160 C 
BRANCH  29  30
ATOM     30  C18  11 d           1.301  -3.499   0.475  0.00  0.00    -0.041 A 
ATOM     31  C19  11 d           1.474  -2.818  -0.751  0.00  0.00     0.009 A 
ATOM     32  C20  11 d           1.823  -3.511  -1.920  0.00  0.00     0.001 A 
ATOM     33  C21  11 d           2.008  -4.898  -1.883  0.00  0.00     0.000 A 
ATOM     34  C22  11 d           1.843  -5.592  -0.678  0.00  0.00     0.001 A 
ATOM     35  C23  11 d           1.493  -4.903   0.494  0.00  0.00     0.009 A 
ENDBRANCH  29  30
ENDBRANCH  27  29
ENDBRANCH   1  27
TORSDOF 5
