REMARK  3 active torsions:
REMARK  status: ('A' for Active; 'I' for Inactive)
REMARK    1  A    between atoms: C1_1  and  N1_2 
REMARK    2  A    between atoms: C1_1  and  N2_9 
REMARK    3  A    between atoms: N2_9  and  C6_10 
ROOT
ATOM      1  C1   11 d           4.816  -1.775  -3.911  0.00  0.00     0.174 C 
ATOM      2  S1   11 d           3.850  -1.541  -4.974  0.00  0.00    -0.041 SA
ENDROOT
BRANCH   1   3
ATOM      3  N1   11 d           6.198  -1.268  -4.026  0.00  0.00    -0.354 N 
ATOM      4  C2   11 d           6.988  -1.618  -5.256  0.00  0.00     0.151 C 
ATOM      5  C3   11 d           6.887  -0.532  -6.339  0.00  0.00     0.187 C 
ATOM      6  O1   11 d           7.198   0.783  -5.801  0.00  0.00    -0.388 OA
ATOM      7  C4   11 d           6.283   1.137  -4.726  0.00  0.00     0.187 C 
ATOM      8  C5   11 d           6.399   0.145  -3.565  0.00  0.00     0.151 C 
ENDBRANCH   1   3
BRANCH   1   9
ATOM      9  N2   11 d           4.537  -2.538  -2.678  0.00  0.00    -0.333 N 
ATOM     10  H9   11 d           5.384  -2.609  -2.018  0.00  0.00     0.168 HD
BRANCH   9  11
ATOM     11  C6   11 d           3.303  -3.208  -2.198  0.00  0.00     0.034 A 
ATOM     12  C7   11 d           3.382  -3.848  -0.940  0.00  0.00     0.029 A 
ATOM     13  C8   11 d           2.274  -4.506  -0.385  0.00  0.00     0.002 A 
ATOM     14  C9   11 d           1.060  -4.540  -1.079  0.00  0.00     0.000 A 
ATOM     15  C10  11 d           0.957  -3.917  -2.328  0.00  0.00     0.002 A 
ATOM     16  C11  11 d           2.064  -3.256  -2.884  0.00  0.00     0.029 A 
ENDBRANCH   9  11
ENDBRANCH   1   9
TORSDOF 3
