REMARK  6 active torsions:
REMARK  status: ('A' for Active; 'I' for Inactive)
REMARK    1  A    between atoms: C7_8  and  C8_9 
REMARK       I    between atoms: C8_9  and  N2_11 
REMARK    2  A    between atoms: N2_11  and  C9_12 
REMARK    3  A    between atoms: C12_15  and  C13_16 
REMARK    4  A    between atoms: C22_27  and  C23_28 
REMARK       I    between atoms: C23_28  and  N3_30 
REMARK    5  A    between atoms: N3_30  and  C24_31 
REMARK    6  A    between atoms: C27_34  and  C28_35 
ROOT
ATOM      1  C1   11 d           1.731  -0.067  -0.937  0.00  0.00     0.266 A 
ATOM      2  C2   11 d           3.058   0.310  -0.480  0.00  0.00     0.049 A 
ATOM      3  C3   11 d           3.596  -0.765   0.189  0.00  0.00     0.048 A 
ATOM      4  C4   11 d           2.586  -1.831   0.159  0.00  0.00     0.266 A 
ATOM      5  N1   11 d           1.409  -1.405  -0.542  0.00  0.00    -0.244 N 
ATOM      6  C5   11 d           0.147  -2.162  -0.801  0.00  0.00     0.046 A 
ATOM      7  C6   11 d          -0.919  -1.575  -1.522  0.00  0.00     0.047 A 
ATOM      8  C7   11 d          -2.138  -2.242  -1.783  0.00  0.00     0.034 A 
ATOM      9  C17  11 d          -2.286  -3.557  -1.296  0.00  0.00     0.017 A 
ATOM     10  C18  11 d          -1.248  -4.167  -0.579  0.00  0.00     0.003 A 
ATOM     11  C19  11 d          -0.048  -3.482  -0.336  0.00  0.00     0.030 A 
ATOM     12  O3   11 d           2.760  -2.978   0.700  0.00  0.00    -0.267 OA
ATOM     13  C20  11 d           4.874  -0.683   0.753  0.00  0.00     0.019 A 
ATOM     14  C21  11 d           5.586   0.532   0.636  0.00  0.00     0.018 A 
ATOM     15  C22  11 d           5.030   1.660  -0.037  0.00  0.00     0.033 A 
ATOM     16  C32  11 d           3.740   1.520  -0.610  0.00  0.00     0.035 A 
ATOM     17  O6   11 d           0.985   0.734  -1.597  0.00  0.00    -0.267 OA
ENDROOT
BRANCH   8  18
ATOM     18  C8   11 d          -3.197  -1.507  -2.565  0.00  0.00     0.256 C 
ATOM     19  O1   11 d          -2.858  -0.404  -3.117  0.00  0.00    -0.267 OA
ATOM     20  N2   11 d          -4.546  -1.983  -2.712  0.00  0.00    -0.323 N 
ATOM     21  H2   11 d          -4.803  -2.909  -2.242  0.00  0.00     0.169 HD
BRANCH  20  22
ATOM     22  C9   11 d          -5.643  -1.315  -3.460  0.00  0.00     0.035 A 
ATOM     23  C10  11 d          -6.894  -1.966  -3.487  0.00  0.00     0.030 A 
ATOM     24  C11  11 d          -7.993  -1.409  -4.160  0.00  0.00     0.017 A 
ATOM     25  C12  11 d          -7.882  -0.172  -4.826  0.00  0.00     0.009 A 
ATOM     26  C15  11 d          -6.635   0.482  -4.807  0.00  0.00     0.017 A 
ATOM     27  C16  11 d          -5.537  -0.077  -4.140  0.00  0.00     0.030 A 
BRANCH  25  28
ATOM     28  C13  11 d          -9.059   0.417  -5.539  0.00  0.00     0.155 C 
ATOM     29  O2   11 d         -10.138  -0.228  -5.599  0.00  0.00    -0.293 OA
ATOM     30  C14  11 d          -9.026   1.796  -6.139  0.00  0.00     0.096 C 
ENDBRANCH  25  28
ENDBRANCH  20  22
ENDBRANCH   8  18
BRANCH  15  31
ATOM     31  C23  11 d           5.793   2.961  -0.078  0.00  0.00     0.256 C 
ATOM     32  O4   11 d           6.887   3.031   0.582  0.00  0.00    -0.267 OA
ATOM     33  N3   11 d           5.329   4.104  -0.823  0.00  0.00    -0.323 N 
ATOM     34  H15  11 d           4.415   4.013  -1.367  0.00  0.00     0.169 HD
BRANCH  33  35
ATOM     35  C24  11 d           5.968   5.435  -0.935  0.00  0.00     0.035 A 
ATOM     36  C25  11 d           5.297   6.395  -1.722  0.00  0.00     0.030 A 
ATOM     37  C26  11 d           5.793   7.696  -1.868  0.00  0.00     0.017 A 
ATOM     38  C27  11 d           6.990   8.086  -1.235  0.00  0.00     0.009 A 
ATOM     39  C30  11 d           7.673   7.130  -0.455  0.00  0.00     0.017 A 
ATOM     40  C31  11 d           7.174   5.825  -0.308  0.00  0.00     0.030 A 
BRANCH  38  41
ATOM     41  C28  11 d           7.491   9.488  -1.387  0.00  0.00     0.155 C 
ATOM     42  O5   11 d           6.791  10.336  -2.000  0.00  0.00    -0.293 OA
ATOM     43  C29  11 d           8.863   9.905  -0.938  0.00  0.00     0.096 C 
ENDBRANCH  38  41
ENDBRANCH  33  35
ENDBRANCH  15  31
TORSDOF 6
