REMARK  0 active torsions:
REMARK  status: ('A' for Active; 'I' for Inactive)
REMARK       I    between atoms: C1_1  and  N1_2 
REMARK       I    between atoms: C1_1  and  N4_15 
ROOT
ATOM      1  C1   11 d           1.354   0.589  -4.533  0.00  0.00     0.689 C 
ATOM      2  N1   11 d           1.005   1.630  -3.669  0.00  0.00    -0.214 N 
ATOM      3  C2   11 d          -0.219   2.352  -3.816  0.00  0.00     0.161 C 
ATOM      4  C3   11 d           0.065   3.858  -3.903  0.00  0.00     0.143 C 
ATOM      5  N2   11 d           0.925   4.258  -2.840  0.00  0.00    -0.378 N 
ATOM      6  C4   11 d           0.594   5.327  -2.006  0.00  0.00     0.030 A 
ATOM      7  C5   11 d           1.518   6.370  -1.781  0.00  0.00     0.029 A 
ATOM      8  C6   11 d           1.191   7.445  -0.942  0.00  0.00     0.002 A 
ATOM      9  C7   11 d          -0.064   7.495  -0.320  0.00  0.00     0.000 A 
ATOM     10  C8   11 d          -0.992   6.466  -0.535  0.00  0.00     0.002 A 
ATOM     11  C9   11 d          -0.665   5.387  -1.370  0.00  0.00     0.029 A 
ATOM     12  C10  11 d           2.136   3.531  -2.636  0.00  0.00     0.143 C 
ATOM     13  C11  11 d           1.873   2.017  -2.604  0.00  0.00     0.161 C 
ATOM     14  N3   11 d           1.379   0.749  -5.829  0.00  0.00    -0.118 NA
ATOM     15  N4   11 d           1.690  -0.644  -4.021  0.00  0.00    -0.233 N 
ATOM     16  H14  11 d           1.143   1.723  -6.157  0.00  0.00     0.206 HD
ATOM     17  H15  11 d           1.646  -0.817  -3.043  0.00  0.00     0.174 HD
ATOM     18  H16  11 d           1.981  -1.381  -4.622  0.00  0.00     0.174 HD
ENDROOT
TORSDOF 0
