REMARK  6 active torsions:
REMARK  status: ('A' for Active; 'I' for Inactive)
REMARK    1  A    between atoms: C1_1  and  O2_3 
REMARK    2  A    between atoms: C1_1  and  C5_7 
REMARK    3  A    between atoms: O2_3  and  C2_4 
REMARK    4  A    between atoms: C5_7  and  C6_8 
REMARK    5  A    between atoms: C5_7  and  N1_15 
REMARK    6  A    between atoms: C6_8  and  C7_9 
ROOT
ATOM      1  C5   11 d           3.243  -8.904  -5.647  0.00  0.00     0.286 C 
ENDROOT
BRANCH   1   2
ATOM      2  C1   11 d           2.020  -8.031  -5.559  0.00  0.00     0.290 C 
ATOM      3  O1   11 d           1.526  -7.765  -4.435  0.00  0.00    -0.263 OA
BRANCH   2   4
ATOM      4  O2   11 d           1.631  -7.328  -6.731  0.00  0.00    -0.315 OA
BRANCH   4   5
ATOM      5  C2   11 d           1.060  -6.006  -6.532  0.00  0.00     0.123 C 
ATOM      6  C3   11 d           0.301  -5.648  -7.808  0.00  0.00     0.040 C 
ATOM      7  C4   11 d           2.161  -4.981  -6.246  0.00  0.00     0.040 C 
ENDBRANCH   4   5
ENDBRANCH   2   4
ENDBRANCH   1   2
BRANCH   1   8
ATOM      8  C6   11 d           2.881 -10.359  -6.018  0.00  0.00     0.081 C 
BRANCH   8   9
ATOM      9  C7   11 d           2.039 -10.451  -7.270  0.00  0.00    -0.056 A 
ATOM     10  C8   11 d           0.693 -10.866  -7.198  0.00  0.00     0.007 A 
ATOM     11  C9   11 d          -0.082 -10.964  -8.364  0.00  0.00     0.001 A 
ATOM     12  C10  11 d           0.482 -10.660  -9.610  0.00  0.00     0.000 A 
ATOM     13  C11  11 d           1.826 -10.272  -9.694  0.00  0.00     0.001 A 
ATOM     14  C12  11 d           2.607 -10.181  -8.532  0.00  0.00     0.007 A 
ENDBRANCH   8   9
ENDBRANCH   1   8
BRANCH   1  15
ATOM     15  N1   11 d           4.039  -8.840  -4.387  0.00  0.00    -0.066 N 
ATOM     16  H16  11 d           4.949  -9.394  -4.488  0.00  0.00     0.275 HD
ATOM     17  H17  11 d           4.297  -7.827  -4.153  0.00  0.00     0.275 HD
ATOM     18  H18  11 d           3.491  -9.245  -3.560  0.00  0.00     0.275 HD
ENDBRANCH   1  15
TORSDOF 6
