REMARK  1 active torsions:
REMARK  status: ('A' for Active; 'I' for Inactive)
REMARK    1  A    between atoms: C14_14  and  N1_15 
ROOT
ATOM      1  C1   11 d           0.725   4.881   1.125  0.00  0.00    -0.006 C 
ATOM      2  C2   11 d           0.312   3.517   1.662  0.00  0.00    -0.006 C 
ATOM      3  C3   11 d          -0.600   3.935   2.823  0.00  0.00    -0.009 C 
ATOM      4  C4   11 d          -1.365   2.712   3.354  0.00  0.00     0.010 C 
ATOM      5  C5   11 d          -0.390   1.581   3.791  0.00  0.00    -0.010 C 
ATOM      6  C6   11 d           0.704   1.294   2.726  0.00  0.00     0.005 C 
ATOM      7  C7   11 d           1.393   2.557   2.169  0.00  0.00     0.006 C 
ATOM      8  C8   11 d           0.266   1.876   5.161  0.00  0.00    -0.010 A 
ATOM      9  C9   11 d           0.675   0.743   6.089  0.00  0.00     0.005 A 
ATOM     10  C10  11 d          -0.631   1.493   6.329  0.00  0.00     0.005 A 
ATOM     11  C11  11 d          -1.399   5.140   2.296  0.00  0.00     0.010 C 
ATOM     12  C12  11 d          -0.651   5.554   1.020  0.00  0.00    -0.008 C 
ATOM     13  C13  11 d          -0.479   7.049   0.709  0.00  0.00     0.036 C 
ATOM     14  C14  11 d           0.259   7.221  -0.658  0.00  0.00     0.156 C 
ATOM     15  C15  11 d           1.611   6.439  -0.623  0.00  0.00     0.032 C 
ATOM     16  C16  11 d           1.454   4.956  -0.222  0.00  0.00     0.007 C 
ENDROOT
BRANCH  14  17
ATOM     17  N1   11 d          -0.547   6.953  -1.815  0.00  0.00    -0.151 N 
ATOM     18  O1   11 d          -1.688   6.965  -1.719  0.00  0.00    -0.536 OA
ATOM     19  O2   11 d          -0.061   6.299  -2.778  0.00  0.00    -0.536 OA
ENDBRANCH  14  17
TORSDOF 1
