REMARK  0 active torsions:
REMARK  status: ('A' for Active; 'I' for Inactive)
ROOT
ATOM      1  C1   11 d          -5.719   4.252  -2.545  0.00  0.00     0.152 A 
ATOM      2  N1   11 d          -4.466   4.658  -2.195  0.00  0.00    -0.225 NA
ATOM      3  C2   11 d          -4.546   4.898  -0.874  0.00  0.00     0.093 A 
ATOM      4  C3   11 d          -5.847   4.662  -0.506  0.00  0.00     0.106 A 
ATOM      5  O1   11 d          -6.560   4.290  -1.534  0.00  0.00    -0.293 OA
ATOM      6  C4   11 d          -6.283   4.831   0.812  0.00  0.00     0.040 A 
ATOM      7  C5   11 d          -5.334   5.256   1.767  0.00  0.00     0.003 A 
ATOM      8  C6   11 d          -3.991   5.500   1.386  0.00  0.00     0.002 A 
ATOM      9  C7   11 d          -3.583   5.323   0.046  0.00  0.00     0.034 A 
ATOM     10  C8   11 d          -6.174   4.037  -3.970  0.00  0.00     0.088 C 
ATOM     11  C9   11 d          -5.311   4.835  -4.975  0.00  0.00     0.245 C 
ATOM     12  N2   11 d          -5.783   4.673  -6.385  0.00  0.00    -0.074 N 
ATOM     13  C10  11 d          -7.219   5.054  -6.550  0.00  0.00     0.232 C 
ATOM     14  C11  11 d          -8.124   4.252  -5.606  0.00  0.00     0.028 C 
ATOM     15  C12  11 d          -7.664   4.402  -4.151  0.00  0.00     0.016 C 
ATOM     16  H8   11 d          -5.182   5.286  -7.028  0.00  0.00     0.277 HD
ATOM     17  H9   11 d          -5.643   3.655  -6.697  0.00  0.00     0.277 HD
ENDROOT
TORSDOF 0
