REMARK  1 active torsions:
REMARK  status: ('A' for Active; 'I' for Inactive)
REMARK    1  A    between atoms: N1_3  and  N3_15 
ROOT
ATOM      1  C1   11 d           5.597   2.905  -0.951  0.00  0.00     0.052 A 
ATOM      2  C2   11 d           4.335   3.018  -0.240  0.00  0.00     0.155 A 
ATOM      3  N1   11 d           4.003   4.329   0.194  0.00  0.00    -0.211 N 
ATOM      4  C3   11 d           4.848   5.447   0.004  0.00  0.00     0.343 A 
ATOM      5  O1   11 d           4.495   6.541   0.389  0.00  0.00    -0.245 OA
ATOM      6  N2   11 d           6.053   5.238  -0.620  0.00  0.00    -0.300 N 
ATOM      7  C4   11 d           6.375   4.010  -1.086  0.00  0.00     0.093 A 
ATOM      8  S1   11 d           7.826   3.784  -1.895  0.00  0.00    -0.075 SA
ATOM      9  C5   11 d           7.465   2.126  -2.104  0.00  0.00    -0.008 A 
ATOM     10  C6   11 d           6.235   1.775  -1.564  0.00  0.00    -0.028 A 
ATOM     11  C7   11 d           5.720   0.365  -1.621  0.00  0.00     0.041 C 
ATOM     12  C8   11 d           6.494  -0.487  -2.640  0.00  0.00     0.005 C 
ATOM     13  C9   11 d           8.010  -0.265  -2.537  0.00  0.00     0.005 C 
ATOM     14  C10  11 d           8.391   1.196  -2.823  0.00  0.00     0.047 C 
ATOM     15  N4   11 d           3.554   1.933  -0.022  0.00  0.00    -0.282 NA
ATOM     16  H    11 d           6.749   6.059  -0.739  0.00  0.00     0.171 HD
ATOM     17  H    11 d           3.866   0.961  -0.380  0.00  0.00     0.188 HD
ENDROOT
BRANCH   3  18
ATOM     18  N3   11 d           2.798   4.486   0.823  0.00  0.00    -0.237 NA
ATOM     19  H    11 d           2.362   3.479   1.050  0.00  0.00     0.143 HD
ATOM     20  H    11 d           2.946   5.053   1.777  0.00  0.00     0.143 HD
ENDBRANCH   3  18
TORSDOF 1
