REMARK  4 active torsions:
REMARK  status: ('A' for Active; 'I' for Inactive)
REMARK    1  A    between atoms: N3_19  and  C15_20 
REMARK    2  A    between atoms: C15_20  and  C16_21 
REMARK       I    between atoms: C16_21  and  N4_23 
REMARK    3  A    between atoms: N4_23  and  C17_24 
REMARK    4  A    between atoms: C17_24  and  C18_25 
ROOT
ATOM      1  C1   11 d          -4.279  -4.247  -3.771  0.00  0.00     0.268 A 
ATOM      2  C2   11 d          -4.494  -2.925  -3.363  0.00  0.00     0.105 A 
ATOM      3  C3   11 d          -3.421  -2.069  -3.189  0.00  0.00     0.093 A 
ATOM      4  C4   11 d          -3.877  -0.819  -2.774  0.00  0.00     0.031 A 
ATOM      5  C5   11 d          -5.263  -0.839  -2.683  0.00  0.00     0.111 A 
ATOM      6  N1   11 d          -5.974   0.253  -2.301  0.00  0.00    -0.244 NA
ATOM      7  C6   11 d          -5.320   1.425  -2.013  0.00  0.00     0.047 A 
ATOM      8  C7   11 d          -3.900   1.477  -2.035  0.00  0.00    -0.009 A 
ATOM      9  C8   11 d          -3.168   0.342  -2.451  0.00  0.00     0.028 A 
ATOM     10  C9   11 d          -3.171   2.730  -1.611  0.00  0.00     0.209 C 
ATOM     11  O1   11 d          -4.036   3.863  -1.297  0.00  0.00    -0.376 OA
ATOM     12  C10  11 d          -5.283   3.533  -0.615  0.00  0.00     0.059 C 
ATOM     13  C11  11 d          -6.120   2.591  -1.510  0.00  0.00     0.097 C 
ATOM     14  C12  11 d          -6.036   4.861  -0.432  0.00  0.00     0.046 C 
ATOM     15  C13  11 d          -5.023   2.926   0.783  0.00  0.00     0.046 C 
ATOM     16  S1   11 d          -5.778  -2.200  -3.053  0.00  0.00    -0.062 SA
ATOM     17  N2   11 d          -2.153  -2.486  -3.416  0.00  0.00    -0.241 NA
ATOM     18  C14  11 d          -1.936  -3.773  -3.821  0.00  0.00     0.213 A 
ATOM     19  N3   11 d          -2.974  -4.678  -3.994  0.00  0.00    -0.299 N 
ATOM     20  O4   11 d          -5.270  -4.995  -3.940  0.00  0.00    -0.266 OA
ENDROOT
BRANCH  19  21
ATOM     21  C15  11 d          -2.531  -6.047  -4.411  0.00  0.00     0.235 C 
BRANCH  21  22
ATOM     22  C16  11 d          -3.381  -7.291  -4.653  0.00  0.00     0.236 C 
ATOM     23  O2   11 d          -4.650  -7.314  -4.509  0.00  0.00    -0.272 OA
ATOM     24  N4   11 d          -2.720  -8.487  -5.060  0.00  0.00    -0.354 N 
ATOM     25  H15  11 d          -1.654  -8.479  -5.188  0.00  0.00     0.162 HD
BRANCH  24  26
ATOM     26  C17  11 d          -3.505  -9.738  -5.306  0.00  0.00     0.187 C 
BRANCH  26  27
ATOM     27  C18  11 d          -2.678 -10.907  -5.767  0.00  0.00     0.070 A 
ATOM     28  O3   11 d          -3.055 -11.684  -6.753  0.00  0.00    -0.325 OA
ATOM     29  C19  11 d          -2.073 -12.514  -7.003  0.00  0.00     0.142 A 
ATOM     30  C20  11 d          -0.992 -12.264  -6.179  0.00  0.00     0.027 A 
ATOM     31  C21  11 d          -1.378 -11.204  -5.383  0.00  0.00     0.036 A 
ENDBRANCH  26  27
ENDBRANCH  24  26
ENDBRANCH  21  22
ENDBRANCH  19  21
TORSDOF 4
