REMARK  6 active torsions:
REMARK  status: ('A' for Active; 'I' for Inactive)
REMARK       I    between atoms: C1_1  and  N1_2 
REMARK    1  A    between atoms: C1_1  and  C6_8 
REMARK    2  A    between atoms: N1_2  and  C2_3 
REMARK    3  A    between atoms: N1_2  and  C4_5 
REMARK    4  A    between atoms: C6_8  and  P1_9 
REMARK    5  A    between atoms: P1_9  and  C7_10 
REMARK    6  A    between atoms: P1_9  and  C13_16 
ROOT
ATOM      1  P1   11 d           2.767 -10.140  -5.930  0.00  0.00     0.147 P 
ATOM      2  O2   11 d           2.373 -10.072  -4.551  0.00  0.00    -0.311 OA
ENDROOT
BRANCH   1   3
ATOM      3  C6   11 d           3.811  -8.863  -6.246  0.00  0.00     0.185 C 
BRANCH   3   4
ATOM      4  C1   11 d           3.189  -7.494  -6.137  0.00  0.00     0.227 C 
ATOM      5  N1   11 d           3.443  -6.521  -7.143  0.00  0.00    -0.352 N 
ATOM      6  O1   11 d           2.358  -7.214  -5.202  0.00  0.00    -0.273 OA
BRANCH   5   7
ATOM      7  C2   11 d           2.426  -6.323  -8.224  0.00  0.00     0.121 C 
ATOM      8  C3   11 d           1.424  -5.242  -7.836  0.00  0.00     0.026 C 
ENDBRANCH   5   7
BRANCH   5   9
ATOM      9  C4   11 d           4.730  -5.754  -7.036  0.00  0.00     0.121 C 
ATOM     10  C5   11 d           5.044  -4.781  -8.170  0.00  0.00     0.026 C 
ENDBRANCH   5   9
ENDBRANCH   3   4
ENDBRANCH   1   3
BRANCH   1  11
ATOM     11  C7   11 d           3.473 -11.622  -6.183  0.00  0.00     0.009 A 
ATOM     12  C8   11 d           4.811 -11.762  -6.619  0.00  0.00     0.015 A 
ATOM     13  C9   11 d           5.362 -13.036  -6.828  0.00  0.00     0.001 A 
ATOM     14  C10  11 d           4.589 -14.183  -6.603  0.00  0.00     0.000 A 
ATOM     15  C11  11 d           3.264 -14.059  -6.165  0.00  0.00     0.001 A 
ATOM     16  C12  11 d           2.710 -12.788  -5.954  0.00  0.00     0.015 A 
ENDBRANCH   1  11
BRANCH   1  17
ATOM     17  C13  11 d           1.441 -10.016  -6.918  0.00  0.00     0.009 A 
ATOM     18  C14  11 d           0.146  -9.837  -6.384  0.00  0.00     0.015 A 
ATOM     19  C15  11 d          -0.964  -9.730  -7.235  0.00  0.00     0.001 A 
ATOM     20  C16  11 d          -0.795  -9.803  -8.625  0.00  0.00     0.000 A 
ATOM     21  C17  11 d           0.485  -9.986  -9.166  0.00  0.00     0.001 A 
ATOM     22  C18  11 d           1.598 -10.093  -8.319  0.00  0.00     0.015 A 
ENDBRANCH   1  17
TORSDOF 6
