REMARK  5 active torsions:
REMARK  status: ('A' for Active; 'I' for Inactive)
REMARK    1  A    between atoms: C5_5  and  O1_6 
REMARK    2  A    between atoms: N1_21  and  C19_22 
REMARK    3  A    between atoms: C20_23  and  C21_24 
REMARK    4  A    between atoms: C21_24  and  O3_26 
REMARK    5  A    between atoms: O3_26  and  C22_27 
ROOT
ATOM      1  C1   11 d          -3.457   4.490  -2.656  0.00  0.00     0.072 C 
ATOM      2  C2   11 d          -4.401   4.192  -3.767  0.00  0.00    -0.003 A 
ATOM      3  C3   11 d          -3.903   3.531  -4.920  0.00  0.00    -0.043 A 
ATOM      4  C4   11 d          -4.802   3.165  -5.941  0.00  0.00     0.044 A 
ATOM      5  C5   11 d          -6.157   3.523  -5.866  0.00  0.00     0.068 A 
ATOM      6  C7   11 d          -6.641   4.177  -4.723  0.00  0.00     0.037 A 
ATOM      7  C8   11 d          -5.768   4.520  -3.681  0.00  0.00     0.017 A 
ATOM      8  C9   11 d          -2.462   3.053  -4.974  0.00  0.00     0.040 C 
ATOM      9  C10  11 d          -1.871   2.847  -3.566  0.00  0.00     0.018 C 
ATOM     10  C11  11 d          -2.016   4.133  -2.731  0.00  0.00     0.070 C 
ATOM     11  C12  11 d          -1.571   4.361  -1.253  0.00  0.00     0.153 C 
ATOM     12  C13  11 d          -1.040   3.247  -0.318  0.00  0.00    -0.033 A 
ATOM     13  C14  11 d          -0.604   3.639   0.976  0.00  0.00     0.012 A 
ATOM     14  C15  11 d          -0.126   2.712   1.912  0.00  0.00     0.043 A 
ATOM     15  C16  11 d          -0.043   1.360   1.577  0.00  0.00     0.116 A 
ATOM     16  F1   11 d           0.423   0.455   2.485  0.00  0.00    -0.206 F 
ATOM     17  C17  11 d          -0.425   0.942   0.300  0.00  0.00     0.043 A 
ATOM     18  C18  11 d          -0.905   1.870  -0.637  0.00  0.00     0.012 A 
ATOM     19  N1   11 d          -2.750   4.996  -0.743  0.00  0.00    -0.264 N 
ATOM     20  N2   11 d          -3.815   4.977  -1.516  0.00  0.00    -0.175 NA
ENDROOT
BRANCH  19  21
ATOM     21  C19  11 d          -2.878   5.635   0.485  0.00  0.00     0.033 C 
ATOM     22  C20  11 d          -2.227   6.809   0.670  0.00  0.00     0.108 C 
ATOM     23  C24  11 d          -3.782   5.001   1.515  0.00  0.00     0.070 C 
BRANCH  22  24
ATOM     24  C21  11 d          -2.224   7.660   1.884  0.00  0.00     0.284 C 
ATOM     25  O2   11 d          -1.592   8.746   1.854  0.00  0.00    -0.260 OA
BRANCH  24  26
ATOM     26  O3   11 d          -2.976   7.333   3.044  0.00  0.00    -0.318 OA
BRANCH  26  27
ATOM     27  C22  11 d          -2.093   6.894   4.105  0.00  0.00     0.174 C 
ATOM     28  C23  11 d          -2.940   6.462   5.291  0.00  0.00     0.034 C 
ENDBRANCH  26  27
ENDBRANCH  24  26
ENDBRANCH  22  24
ENDBRANCH  19  21
BRANCH   5  29
ATOM     29  O1   11 d          -7.061   3.088  -6.870  0.00  0.00    -0.356 OA
ATOM     30  C6   11 d          -7.206   4.126  -7.872  0.00  0.00     0.210 C 
ENDBRANCH   5  29
TORSDOF 5
