REMARK  3 active torsions:
REMARK  status: ('A' for Active; 'I' for Inactive)
REMARK    1  A    between atoms: C1_1  and  C2_2 
REMARK       I    between atoms: C1_1  and  N1_8 
REMARK    2  A    between atoms: N1_8  and  N2_9 
REMARK    3  A    between atoms: C6_10  and  C7_11 
ROOT
ATOM      1  N2   11 d          -0.223   1.998  -5.016  0.00  0.00    -0.183 NA
ATOM      2  C6   11 d          -1.038   2.431  -4.088  0.00  0.00     0.150 C 
ENDROOT
BRANCH   1   3
ATOM      3  N1   11 d           0.938   1.375  -4.552  0.00  0.00    -0.241 N 
ATOM      4  C1   11 d           1.175   0.009  -4.887  0.00  0.00     0.295 C 
ATOM      5  O2   11 d           0.315  -0.623  -5.599  0.00  0.00    -0.264 OA
ATOM      6  H4   11 d           1.621   1.952  -3.957  0.00  0.00     0.192 HD
BRANCH   4   7
ATOM      7  C2   11 d           2.403  -0.702  -4.429  0.00  0.00     0.144 A 
ATOM      8  O1   11 d           2.588  -1.994  -4.580  0.00  0.00    -0.317 OA
ATOM      9  C3   11 d           3.763  -2.293  -4.086  0.00  0.00     0.143 A 
ATOM     10  C4   11 d           4.392  -1.167  -3.590  0.00  0.00     0.027 A 
ATOM     11  C5   11 d           3.507  -0.129  -3.809  0.00  0.00     0.045 A 
ENDBRANCH   4   7
ENDBRANCH   1   3
BRANCH   2  12
ATOM     12  C7   11 d          -2.286   3.150  -4.447  0.00  0.00    -0.014 A 
ATOM     13  C8   11 d          -2.575   3.500  -5.790  0.00  0.00     0.052 A 
ATOM     14  C9   11 d          -3.757   4.195  -6.069  0.00  0.00     0.105 A 
ATOM     15  C10  11 d          -4.632   4.540  -5.078  0.00  0.00     0.105 A 
ATOM     16  O4   11 d          -4.174   4.655  -7.327  0.00  0.00    -0.323 OA
ATOM     17  O3   11 d          -5.729   5.265  -5.566  0.00  0.00    -0.323 OA
ATOM     18  C12  11 d          -4.382   4.212  -3.741  0.00  0.00     0.040 A 
ATOM     19  C11  11 d          -5.400   5.376  -6.987  0.00  0.00     0.352 A 
ATOM     20  C13  11 d          -3.201   3.511  -3.427  0.00  0.00     0.016 A 
ENDBRANCH   2  12
TORSDOF 3
