REMARK  4 active torsions:
REMARK  status: ('A' for Active; 'I' for Inactive)
REMARK    1  A    between atoms: C2_2  and  C14_19 
REMARK    2  A    between atoms: C8_10  and  O1_11 
REMARK    3  A    between atoms: O1_11  and  C9_12 
REMARK    4  A    between atoms: C14_19  and  C15_20 
ROOT
ATOM      1  C1   11 d          -4.436  -0.031  -3.924  0.00  0.00     0.287 A 
ATOM      2  C2   11 d          -3.087  -0.433  -4.097  0.00  0.00     0.079 A 
ATOM      3  S1   11 d          -2.301   0.127  -2.921  0.00  0.00    -0.044 SA
ATOM      4  C3   11 d          -3.393   0.820  -2.179  0.00  0.00     0.200 A 
ATOM      5  N1   11 d          -3.506   1.551  -1.069  0.00  0.00    -0.200 NA
ATOM      6  C4   11 d          -4.838   1.862  -1.057  0.00  0.00     0.182 A 
ATOM      7  C5   11 d          -5.487   2.719  -0.039  0.00  0.00     0.014 A 
ATOM      8  C6   11 d          -6.890   2.864   0.003  0.00  0.00     0.018 A 
ATOM      9  C7   11 d          -7.489   3.707   0.953  0.00  0.00     0.038 A 
ATOM     10  C8   11 d          -6.698   4.408   1.875  0.00  0.00     0.069 A 
ATOM     11  C12  11 d          -5.302   4.290   1.823  0.00  0.00     0.038 A 
ATOM     12  C13  11 d          -4.702   3.437   0.886  0.00  0.00     0.018 A 
ATOM     13  N2   11 d          -5.476   1.308  -2.136  0.00  0.00    -0.141 NA
ATOM     14  N3   11 d          -4.541   0.690  -2.784  0.00  0.00    -0.169 N 
ATOM     15  O2   11 d          -5.383  -0.236  -4.723  0.00  0.00    -0.265 OA
ENDROOT
BRANCH   2  16
ATOM     16  C14  11 d          -2.497  -1.141  -5.089  0.00  0.00     0.036 C 
BRANCH  16  17
ATOM     17  C15  11 d          -3.180  -1.758  -6.254  0.00  0.00    -0.033 A 
ATOM     18  C16  11 d          -4.358  -2.524  -6.131  0.00  0.00     0.037 A 
ATOM     19  C17  11 d          -4.951  -3.107  -7.263  0.00  0.00     0.056 A 
ATOM     20  C18  11 d          -4.360  -2.943  -8.531  0.00  0.00     0.055 A 
ATOM     21 Cl2   11 d          -6.445  -4.060  -7.049  0.00  0.00    -0.083 Cl
ATOM     22 Cl1   11 d          -5.072  -3.660  -9.999  0.00  0.00    -0.083 Cl
ATOM     23  C19  11 d          -3.174  -2.204  -8.652  0.00  0.00     0.026 A 
ATOM     24  C20  11 d          -2.583  -1.622  -7.522  0.00  0.00     0.013 A 
ENDBRANCH  16  17
ENDBRANCH   2  16
BRANCH  10  25
ATOM     25  O1   11 d          -7.297   5.348   2.755  0.00  0.00    -0.347 OA
BRANCH  25  26
ATOM     26  C9   11 d          -7.409   4.822   4.108  0.00  0.00     0.120 C 
ATOM     27  C10  11 d          -8.890   4.670   4.459  0.00  0.00     0.040 C 
ATOM     28  C11  11 d          -6.721   5.816   5.045  0.00  0.00     0.040 C 
ENDBRANCH  25  26
ENDBRANCH  10  25
TORSDOF 4
