REMARK  3 active torsions:
REMARK  status: ('A' for Active; 'I' for Inactive)
REMARK    1  A    between atoms: C7_8  and  S1_9 
REMARK    2  A    between atoms: S1_9  and  N1_12 
REMARK    3  A    between atoms: C10_15  and  N2_16 
ROOT
ATOM      1  C1   11 d           9.567   0.560  -2.595  0.00  0.00     0.012 A 
ATOM      2  C2   11 d          10.527  -0.093  -3.337  0.00  0.00     0.011 A 
ATOM      3  C3   11 d           9.828  -0.707  -4.362  0.00  0.00     0.089 A 
ATOM      4  O1   11 d           8.536  -0.477  -4.298  0.00  0.00    -0.309 OA
ATOM      5  C4   11 d           8.372   0.282  -3.238  0.00  0.00     0.087 A 
ATOM      6  C5   11 d           7.160   0.784  -2.757  0.00  0.00     0.040 A 
ATOM      7  C6   11 d           7.187   1.583  -1.593  0.00  0.00     0.027 A 
ATOM      8  C7   11 d           8.414   1.866  -0.936  0.00  0.00     0.075 A 
ATOM      9  C8   11 d           9.627   1.350  -1.442  0.00  0.00     0.040 A 
ATOM     10  C9   11 d          10.484  -1.476  -5.326  0.00  0.00     0.074 A 
ATOM     11  C10  11 d          11.897  -1.624  -5.241  0.00  0.00     0.105 A 
ATOM     12  C11  11 d          12.594  -0.977  -4.175  0.00  0.00     0.037 A 
ATOM     13  C12  11 d          11.912  -0.205  -3.212  0.00  0.00     0.017 A 
ENDROOT
BRANCH   8  14
ATOM     14  S1   11 d           8.450   2.879   0.547  0.00  0.00     0.239 S 
ATOM     15  O2   11 d           9.015   2.060   1.709  0.00  0.00    -0.206 OA
ATOM     16  O3   11 d           7.033   3.299   0.946  0.00  0.00    -0.206 OA
BRANCH  14  17
ATOM     17  N1   11 d           9.427   4.315   0.344  0.00  0.00    -0.225 NA
ATOM     18  H3   11 d           8.850   4.994  -0.246  0.00  0.00     0.136 HD
ATOM     19  H4   11 d           9.515   4.756   1.313  0.00  0.00     0.136 HD
ENDBRANCH  14  17
ENDBRANCH   8  14
BRANCH  11  20
ATOM     20  N2   11 d          12.596  -2.383  -6.184  0.00  0.00    -0.116 N 
ATOM     21  O4   11 d          12.036  -2.955  -7.003  0.00  0.00    -0.532 OA
ATOM     22  O5   11 d          13.837  -2.579  -6.065  0.00  0.00    -0.532 OA
ENDBRANCH  11  20
TORSDOF 3
