REMARK  5 active torsions:
REMARK  status: ('A' for Active; 'I' for Inactive)
REMARK    1  A    between atoms: C1_1  and  C2_2 
REMARK    2  A    between atoms: C1_1  and  C14_16 
REMARK    3  A    between atoms: C4_4  and  C12_12 
REMARK    4  A    between atoms: N1_14  and  O1_15 
REMARK    5  A    between atoms: N2_17  and  O2_18 
ROOT
ATOM      1  C2   11 d           0.742  -3.262  -3.143  0.00  0.00     0.009 C 
ATOM      2  C3   11 d           1.330  -2.475  -1.921  0.00  0.00     0.025 C 
ATOM      3  C4   11 d           1.422  -3.321  -0.612  0.00  0.00    -0.039 C 
ATOM      4  C5   11 d           2.321  -4.556  -0.905  0.00  0.00     0.014 C 
ATOM      5  C6   11 d           1.736  -5.375  -2.075  0.00  0.00    -0.012 C 
ATOM      6  C7   11 d           1.676  -4.497  -3.345  0.00  0.00     0.020 C 
ATOM      7  C8   11 d           0.313  -5.856  -1.711  0.00  0.00     0.009 C 
ATOM      8  C9   11 d          -0.593  -4.635  -1.431  0.00  0.00    -0.012 C 
ATOM      9  C10  11 d          -0.673  -3.751  -2.695  0.00  0.00     0.020 C 
ATOM     10  C11  11 d          -0.010  -3.815  -0.261  0.00  0.00     0.014 C 
ENDROOT
BRANCH   1  11
ATOM     11  C1   11 d           0.616  -2.476  -4.496  0.00  0.00     0.089 C 
ATOM     12  N1   11 d           0.954  -1.220  -4.743  0.00  0.00    -0.139 NA
BRANCH  12  13
ATOM     13  O1   11 d           1.464  -0.507  -3.758  0.00  0.00    -0.266 OA
ATOM     14  H20  11 d           1.733   0.451  -3.913  0.00  0.00     0.247 HD
ENDBRANCH  12  13
BRANCH  11  15
ATOM     15  C14  11 d           0.060  -3.106  -5.739  0.00  0.00     0.176 C 
ATOM     16  N2   11 d          -0.347  -4.346  -5.806  0.00  0.00    -0.147 NA
BRANCH  16  17
ATOM     17  O2   11 d          -0.797  -4.678  -7.003  0.00  0.00    -0.266 OA
ATOM     18  H22  11 d          -1.138  -5.610  -7.176  0.00  0.00     0.247 HD
ENDBRANCH  16  17
ENDBRANCH  11  15
ENDBRANCH   1  11
BRANCH   3  19
ATOM     19  C12  11 d           2.018  -2.425   0.512  0.00  0.00     0.005 C 
ATOM     20  C13  11 d           2.168  -3.056   1.900  0.00  0.00     0.006 C 
ENDBRANCH   3  19
TORSDOF 5
