REMARK  1 active torsions:
REMARK  status: ('A' for Active; 'I' for Inactive)
REMARK    1  A    between atoms: C8_8  and  O1_9 
ROOT
ATOM      1  C1   11 d           6.781  -4.623  -3.252  0.00  0.00     0.270 C 
ATOM      2  C2   11 d           6.742  -3.347  -3.994  0.00  0.00     0.108 A 
ATOM      3  C3   11 d           7.747  -3.037  -4.905  0.00  0.00    -0.012 A 
ATOM      4  C4   11 d           7.489  -1.746  -5.332  0.00  0.00     0.002 A 
ATOM      5  C5   11 d           6.313  -1.333  -4.726  0.00  0.00     0.043 A 
ATOM      6  C6   11 d           5.779  -0.062  -4.962  0.00  0.00     0.033 A 
ATOM      7  C7   11 d           6.468   0.793  -5.846  0.00  0.00     0.039 A 
ATOM      8  C8   11 d           7.655   0.364  -6.488  0.00  0.00     0.069 A 
ATOM      9  C10  11 d           8.195  -0.908  -6.204  0.00  0.00     0.051 A 
ATOM     10  N1   11 d           5.866  -2.315  -3.918  0.00  0.00    -0.351 N 
ATOM     11  C11  11 d           8.960  -3.903  -5.134  0.00  0.00     0.062 C 
ATOM     12  C12  11 d           9.180  -4.884  -3.962  0.00  0.00     0.130 C 
ATOM     13  N2   11 d           7.886  -5.496  -3.502  0.00  0.00    -0.351 N 
ATOM     14  C13  11 d           7.773  -6.970  -3.314  0.00  0.00     0.153 C 
ATOM     15  O2   11 d           5.875  -4.922  -2.395  0.00  0.00    -0.266 OA
ATOM     16  H7   11 d           5.006  -2.281  -3.315  0.00  0.00     0.166 HD
ENDROOT
BRANCH   8  17
ATOM     17  O1   11 d           8.373   1.266  -7.317  0.00  0.00    -0.356 OA
ATOM     18  C9   11 d           7.977   1.070  -8.698  0.00  0.00     0.210 C 
ENDBRANCH   8  17
TORSDOF 1
