REMARK  2 active torsions:
REMARK  status: ('A' for Active; 'I' for Inactive)
REMARK    1  A    between atoms: C1_1  and  S1_2 
REMARK    2  A    between atoms: S1_2  and  N1_3 
ROOT
ATOM      1  S1   11 d           3.141  -9.843  -4.259  0.00  0.00     0.243 S 
ATOM      2  O2   11 d           3.922 -10.096  -5.551  0.00  0.00    -0.206 OA
ATOM      3  O3   11 d           3.756 -10.746  -3.185  0.00  0.00    -0.206 OA
ENDROOT
BRANCH   1   4
ATOM      4  C1   11 d           1.416 -10.274  -4.524  0.00  0.00     0.074 A 
ATOM      5  C6   11 d           0.798 -11.287  -3.770  0.00  0.00     0.025 A 
ATOM      6  C7   11 d          -0.554 -11.598  -3.981  0.00  0.00     0.008 A 
ATOM      7  C8   11 d          -1.312 -10.880  -4.927  0.00  0.00    -0.062 A 
ATOM      8  C9   11 d          -0.677  -9.895  -5.708  0.00  0.00     0.008 A 
ATOM      9  C11  11 d          -2.731 -11.280  -5.220  0.00  0.00     0.048 C 
ATOM     10  C10  11 d           0.675  -9.584  -5.497  0.00  0.00     0.025 A 
ENDBRANCH   1   4
BRANCH   1  11
ATOM     11  N1   11 d           3.332  -8.152  -3.789  0.00  0.00    -0.202 NA
ATOM     12  C2   11 d           4.777  -7.808  -3.644  0.00  0.00     0.134 C 
ATOM     13  C3   11 d           4.921  -6.346  -3.208  0.00  0.00     0.183 C 
ATOM     14  O1   11 d           4.194  -6.098  -1.972  0.00  0.00    -0.389 OA
ATOM     15  C4   11 d           2.781  -6.410  -2.122  0.00  0.00     0.183 C 
ATOM     16  C5   11 d           2.585  -7.874  -2.528  0.00  0.00     0.134 C 
ENDBRANCH   1  11
TORSDOF 2
