REMARK  3 active torsions:
REMARK  status: ('A' for Active; 'I' for Inactive)
REMARK    1  A    between atoms: C1_1  and  C14_18 
REMARK    2  A    between atoms: C2_2  and  S1_15 
REMARK    3  A    between atoms: S1_15  and  C12_16 
ROOT
ATOM      1  C1   11 d          -6.865  -0.468   0.028  0.00  0.00     0.066 A 
ATOM      2  C2   11 d          -8.153  -0.487  -0.542  0.00  0.00     0.089 A 
ATOM      3  N1   11 d          -9.011  -1.501  -0.257  0.00  0.00    -0.302 N 
ATOM      4  C3   11 d          -8.660  -2.516   0.570  0.00  0.00     0.332 A 
ATOM      5  N2   11 d          -7.414  -2.543   1.150  0.00  0.00    -0.267 N 
ATOM      6  C4   11 d          -6.500  -1.532   0.897  0.00  0.00     0.034 A 
ATOM      7  C5   11 d          -5.062  -1.664   1.373  0.00  0.00     0.070 C 
ATOM      8  C6   11 d          -7.091  -3.635   2.043  0.00  0.00     0.044 A 
ATOM      9  C7   11 d          -6.971  -3.406   3.426  0.00  0.00     0.030 A 
ATOM     10  C8   11 d          -6.654  -4.463   4.293  0.00  0.00     0.002 A 
ATOM     11  C9   11 d          -6.454  -5.754   3.781  0.00  0.00     0.000 A 
ATOM     12  C10  11 d          -6.574  -5.990   2.404  0.00  0.00     0.002 A 
ATOM     13  C11  11 d          -6.892  -4.933   1.536  0.00  0.00     0.030 A 
ATOM     14  O1   11 d          -9.501  -3.423   0.804  0.00  0.00    -0.246 OA
ATOM     15  H1   11 d          -9.971  -1.503  -0.679  0.00  0.00     0.171 HD
ENDROOT
BRANCH   1  16
ATOM     16  C14  11 d          -5.949   0.660  -0.287  0.00  0.00     0.160 C 
ATOM     17  O2   11 d          -5.505   0.781  -1.457  0.00  0.00    -0.293 OA
ATOM     18  C15  11 d          -5.421   1.566   0.785  0.00  0.00     0.097 C 
ENDBRANCH   1  16
BRANCH   2  19
ATOM     19  S1   11 d          -8.746   0.833  -1.641  0.00  0.00    -0.112 SA
BRANCH  19  20
ATOM     20  C12  11 d          -8.428  -0.122  -3.179  0.00  0.00     0.076 C 
ATOM     21  C13  11 d          -8.737   0.732  -4.399  0.00  0.00     0.016 C 
ENDBRANCH  19  20
ENDBRANCH   2  19
TORSDOF 3
