REMARK  3 active torsions:
REMARK  status: ('A' for Active; 'I' for Inactive)
REMARK    1  A    between atoms: C4_5  and  C5_6 
REMARK    2  A    between atoms: C5_6  and  C6_7 
REMARK    3  A    between atoms: C5_6  and  N2_13 
ROOT
ATOM      1  C5   11 d          -2.551 -11.244  -5.316  0.00  0.00     0.249 C 
ENDROOT
BRANCH   1   2
ATOM      2  C4   11 d          -1.095 -10.884  -4.993  0.00  0.00    -0.024 A 
ATOM      3  C3   11 d          -0.618 -10.605  -3.687  0.00  0.00     0.011 A 
ATOM      4  C2   11 d           0.735 -10.306  -3.466  0.00  0.00     0.024 A 
ATOM      5  C1   11 d           1.638 -10.282  -4.537  0.00  0.00     0.034 A 
ATOM      6 Cl1   11 d           3.352  -9.903  -4.249  0.00  0.00    -0.084 Cl
ATOM      7  C12  11 d           1.188 -10.560  -5.833  0.00  0.00     0.024 A 
ATOM      8  C11  11 d          -0.163 -10.861  -6.058  0.00  0.00     0.011 A 
ENDBRANCH   1   2
BRANCH   1   9
ATOM      9  C6   11 d          -3.247 -10.280  -6.287  0.00  0.00    -0.021 A 
ATOM     10  C7   11 d          -4.529 -10.619  -6.780  0.00  0.00     0.029 A 
ATOM     11  C8   11 d          -5.195  -9.762  -7.666  0.00  0.00     0.116 A 
ATOM     12  N1   11 d          -4.609  -8.598  -8.054  0.00  0.00    -0.273 NA
ATOM     13  C9   11 d          -3.376  -8.231  -7.612  0.00  0.00     0.116 A 
ATOM     14  C10  11 d          -2.673  -9.060  -6.726  0.00  0.00     0.029 A 
ENDBRANCH   1   9
BRANCH   1  15
ATOM     15  N2   11 d          -3.396 -11.380  -4.086  0.00  0.00    -0.067 N 
ATOM     16  H8   11 d          -2.958 -12.077  -3.401  0.00  0.00     0.275 HD
ATOM     17  H9   11 d          -3.516 -10.435  -3.596  0.00  0.00     0.275 HD
ATOM     18  H10  11 d          -4.370 -11.757  -4.314  0.00  0.00     0.275 HD
ENDBRANCH   1  15
TORSDOF 3
