REMARK  3 active torsions:
REMARK  status: ('A' for Active; 'I' for Inactive)
REMARK    1  A    between atoms: C1_1  and  C2_2 
REMARK       I    between atoms: C1_1  and  N1_10 
REMARK    2  A    between atoms: C3_3  and  O1_8 
REMARK    3  A    between atoms: N1_10  and  N2_11 
ROOT
ATOM      1  C1   11 d           3.012  -9.952  -5.154  0.00  0.00     0.274 C 
ATOM      2  O2   11 d           3.402  -9.879  -6.375  0.00  0.00    -0.266 OA
ATOM      3  N1   11 d           3.962  -9.764  -4.107  0.00  0.00    -0.243 N 
ATOM      4  H6   11 d           3.667  -9.816  -3.076  0.00  0.00     0.192 HD
ENDROOT
BRANCH   1   5
ATOM      5  C2   11 d           1.578 -10.234  -4.858  0.00  0.00     0.066 A 
ATOM      6  C3   11 d           0.550  -9.776  -5.720  0.00  0.00     0.081 A 
ATOM      7  C4   11 d          -0.795 -10.040  -5.413  0.00  0.00     0.037 A 
ATOM      8  C5   11 d          -1.132 -10.790  -4.279  0.00  0.00     0.003 A 
ATOM      9  C6   11 d          -0.123 -11.268  -3.434  0.00  0.00     0.001 A 
ATOM     10  C7   11 d           1.222 -10.992  -3.719  0.00  0.00     0.020 A 
BRANCH   6  11
ATOM     11  O1   11 d           0.826  -8.924  -6.814  0.00  0.00    -0.360 OA
ATOM     12  H5   11 d           1.075  -9.551  -7.600  0.00  0.00     0.217 HD
ENDBRANCH   6  11
ENDBRANCH   1   5
BRANCH   3  13
ATOM     13  N2   11 d           5.295  -9.508  -4.461  0.00  0.00    -0.181 NA
ATOM     14  C8   11 d           6.201  -9.320  -3.528  0.00  0.00     0.032 C 
ATOM     15  C9   11 d           5.968  -9.220  -2.049  0.00  0.00     0.056 C 
ATOM     16  C12  11 d           7.600  -8.963  -3.894  0.00  0.00     0.056 C 
ATOM     17  C10  11 d           7.334  -8.805  -1.509  0.00  0.00     0.006 C 
ATOM     18  C11  11 d           8.044  -8.150  -2.687  0.00  0.00     0.006 C 
ENDBRANCH   3  13
TORSDOF 3
