REMARK  2 active torsions:
REMARK  status: ('A' for Active; 'I' for Inactive)
REMARK    1  A    between atoms: C1_1  and  C2_2 
REMARK    2  A    between atoms: C5_5  and  N1_8 
REMARK       I    between atoms: N1_8  and  C8_9 
ROOT
ATOM      1  N1   11 d          -2.638 -10.778  -5.339  0.00  0.00    -0.188 N 
ATOM      2  C8   11 d          -3.223 -10.515  -6.566  0.00  0.00     0.727 A 
ATOM      3  N2   11 d          -4.506 -10.924  -6.779  0.00  0.00    -0.061 NA
ATOM      4  C9   11 d          -5.168 -10.687  -7.952  0.00  0.00     0.096 A 
ATOM      5  C10  11 d          -6.565 -11.180  -8.101  0.00  0.00     0.060 A 
ATOM      6  C11  11 d          -7.585 -10.739  -8.959  0.00  0.00     0.051 A 
ATOM      7  N3   11 d          -8.734 -11.436  -8.734  0.00  0.00    -0.250 NA
ATOM      8  C12  11 d          -8.539 -12.402  -7.810  0.00  0.00     0.072 A 
ATOM      9  S1   11 d          -7.143 -12.297  -7.285  0.00  0.00    -0.071 SA
ATOM     10  C13  11 d          -9.599 -13.306  -7.268  0.00  0.00     0.078 C 
ATOM     11  C14  11 d          -7.595  -9.499  -9.800  0.00  0.00     0.072 C 
ATOM     12  C15  11 d          -4.485 -10.012  -8.981  0.00  0.00     0.053 A 
ATOM     13  C16  11 d          -3.176  -9.579  -8.749  0.00  0.00     0.139 A 
ATOM     14  N4   11 d          -2.577  -9.830  -7.554  0.00  0.00    -0.075 NA
ATOM     15  H5   11 d          -3.239 -11.092  -4.610  0.00  0.00     0.184 HD
ENDROOT
BRANCH   1  16
ATOM     16  C5   11 d          -1.285 -10.630  -5.051  0.00  0.00     0.049 A 
ATOM     17  C4   11 d          -0.913 -10.226  -3.755  0.00  0.00     0.031 A 
ATOM     18  C3   11 d           0.438 -10.075  -3.410  0.00  0.00     0.018 A 
ATOM     19  C2   11 d           1.456 -10.353  -4.346  0.00  0.00     0.048 A 
ATOM     20  C7   11 d           1.083 -10.743  -5.649  0.00  0.00     0.018 A 
ATOM     21  C6   11 d          -0.269 -10.900  -5.992  0.00  0.00     0.031 A 
BRANCH  19  22
ATOM     22  C1   11 d           2.908 -10.098  -4.009  0.00  0.00     0.417 C 
ATOM     23  F1   11 d           3.615  -9.652  -5.122  0.00  0.00    -0.166 F 
ATOM     24  F2   11 d           3.481 -11.284  -3.563  0.00  0.00    -0.166 F 
ATOM     25  F3   11 d           3.042  -9.136  -3.011  0.00  0.00    -0.166 F 
ENDBRANCH  19  22
ENDBRANCH   1  16
TORSDOF 2
