REMARK  2 active torsions:
REMARK  status: ('A' for Active; 'I' for Inactive)
REMARK    1  A    between atoms: N3_15  and  C13_16 
REMARK    2  A    between atoms: C13_16  and  C14_17 
ROOT
ATOM      1  C1   11 d           0.963  -2.593  -4.566  0.00  0.00     0.137 A 
ATOM      2  C2   11 d           0.848  -3.364  -3.241  0.00  0.00     0.023 C 
ATOM      3  C3   11 d           1.103  -2.394  -2.036  0.00  0.00     0.022 C 
ATOM      4  C4   11 d           1.066  -3.140  -0.683  0.00  0.00    -0.013 C 
ATOM      5  C5   11 d           2.154  -4.237  -0.676  0.00  0.00     0.009 C 
ATOM      6  C6   11 d           1.894  -5.228  -1.834  0.00  0.00    -0.013 C 
ATOM      7  C7   11 d           1.944  -4.468  -3.184  0.00  0.00     0.022 C 
ATOM      8  C8   11 d           0.500  -5.874  -1.651  0.00  0.00     0.009 C 
ATOM      9  C9   11 d          -0.588  -4.772  -1.652  0.00  0.00    -0.013 C 
ATOM     10  C10  11 d          -0.547  -4.019  -3.003  0.00  0.00     0.022 C 
ATOM     11  C11  11 d          -0.325  -3.783  -0.496  0.00  0.00     0.009 C 
ATOM     12  N1   11 d           1.487  -1.342  -4.609  0.00  0.00    -0.158 NA
ATOM     13  N2   11 d           1.454  -0.908  -5.826  0.00  0.00    -0.251 N 
ATOM     14  C12  11 d           0.899  -1.841  -6.610  0.00  0.00     0.196 A 
ATOM     15  N3   11 d           0.529  -2.894  -5.833  0.00  0.00    -0.308 N 
ATOM     16  S1   11 d           0.782  -1.716  -8.055  0.00  0.00    -0.039 SA
ATOM     17  H16  11 d           1.820   0.026  -6.135  0.00  0.00     0.191 HD
ENDROOT
BRANCH  15  18
ATOM     18  C13  11 d          -0.042  -4.166  -6.325  0.00  0.00     0.136 C 
BRANCH  18  19
ATOM     19  C14  11 d          -1.591  -4.180  -6.367  0.00  0.00    -0.004 C 
ATOM     20  C15  11 d          -2.111  -5.621  -6.484  0.00  0.00     0.011 C 
ATOM     21  C16  11 d          -2.174  -3.319  -7.495  0.00  0.00     0.011 C 
ENDBRANCH  18  19
ENDBRANCH  15  18
TORSDOF 2
