REMARK  7 active torsions:
REMARK  status: ('A' for Active; 'I' for Inactive)
REMARK    1  A    between atoms: C1_1  and  N6_26 
REMARK    2  A    between atoms: C2_2  and  O2_18 
REMARK       I    between atoms: C3_4  and  N4_8 
REMARK    3  A    between atoms: C4_6  and  N3_7 
REMARK    4  A    between atoms: N4_8  and  C5_9 
REMARK    5  A    between atoms: C8_12  and  C9_13 
REMARK       I    between atoms: C9_13  and  N5_15 
REMARK    6  A    between atoms: O2_18  and  C12_19 
REMARK    7  A    between atoms: C12_19  and  C13_20 
ROOT
ATOM      1  C1   11 d          -2.035   4.181   1.242  0.00  0.00     0.186 A 
ATOM      2  C2   11 d          -1.042   3.266   1.633  0.00  0.00     0.218 A 
ATOM      3  N1   11 d           0.203   3.332   1.080  0.00  0.00    -0.035 NA
ATOM      4  C3   11 d           0.532   4.252   0.137  0.00  0.00     0.731 A 
ATOM      5  N2   11 d          -0.427   5.123  -0.281  0.00  0.00    -0.043 NA
ATOM      6  C4   11 d          -1.692   5.122   0.233  0.00  0.00     0.176 A 
ATOM      7  N4   11 d           1.811   4.202  -0.396  0.00  0.00    -0.188 N 
ATOM      8  H3   11 d           2.402   3.480  -0.051  0.00  0.00     0.184 HD
ENDROOT
BRANCH   7   9
ATOM      9  C5   11 d           2.340   5.053  -1.367  0.00  0.00     0.049 A 
ATOM     10  C6   11 d           3.334   4.532  -2.217  0.00  0.00     0.031 A 
ATOM     11  C7   11 d           3.927   5.325  -3.207  0.00  0.00     0.019 A 
ATOM     12  C8   11 d           3.550   6.675  -3.379  0.00  0.00     0.032 A 
ATOM     13  C10  11 d           2.562   7.203  -2.515  0.00  0.00     0.019 A 
ATOM     14  C11  11 d           1.971   6.406  -1.521  0.00  0.00     0.031 A 
BRANCH  12  15
ATOM     15  C9   11 d           4.203   7.483  -4.463  0.00  0.00     0.249 C 
ATOM     16  O1   11 d           5.005   6.907  -5.282  0.00  0.00    -0.268 OA
ATOM     17  N5   11 d           3.984   8.872  -4.648  0.00  0.00    -0.366 N 
ATOM     18  H6   11 d           3.337   9.447  -4.019  0.00  0.00     0.159 HD
ATOM     19  H7   11 d           4.490   9.371  -5.454  0.00  0.00     0.159 HD
ENDBRANCH  12  15
ENDBRANCH   7   9
BRANCH   2  20
ATOM     20  O2   11 d          -1.355   2.236   2.573  0.00  0.00    -0.332 OA
BRANCH  20  21
ATOM     21  C12  11 d          -0.785   0.952   2.188  0.00  0.00     0.182 C 
BRANCH  21  22
ATOM     22  C13  11 d          -1.484  -0.188   2.956  0.00  0.00     0.010 C 
ATOM     23  C14  11 d          -0.695  -1.516   2.897  0.00  0.00     0.007 C 
ATOM     24  C15  11 d          -0.795  -2.208   1.530  0.00  0.00     0.000 C 
ATOM     25  C16  11 d          -2.257  -2.438   1.129  0.00  0.00     0.000 C 
ATOM     26  C17  11 d          -3.067  -1.134   1.156  0.00  0.00     0.000 C 
ATOM     27  C18  11 d          -2.947  -0.415   2.511  0.00  0.00     0.007 C 
ENDBRANCH  21  22
ENDBRANCH  20  21
ENDBRANCH   2  20
BRANCH   6  28
ATOM     28  N3   11 d          -2.576   6.030  -0.317  0.00  0.00    -0.381 N 
ATOM     29  H1   11 d          -2.242   6.733  -0.937  0.00  0.00     0.157 HD
ATOM     30  H2   11 d          -3.549   6.004  -0.116  0.00  0.00     0.157 HD
ENDBRANCH   6  28
BRANCH   1  31
ATOM     31  N6   11 d          -3.325   4.081   1.885  0.00  0.00    -0.090 NA
ATOM     32  O3   11 d          -3.852   5.140   2.082  0.00  0.00    -0.060 OA
ENDBRANCH   1  31
TORSDOF 7
