REMARK  1 active torsions:
REMARK  status: ('A' for Active; 'I' for Inactive)
REMARK    1  A    between atoms: C1_1  and  C2_2 
REMARK       I    between atoms: C1_1  and  N1_14 
ROOT
ATOM      1  C2   11 d           1.463 -10.678  -5.028  0.00  0.00     0.032 A 
ATOM      2  C3   11 d           0.871 -11.797  -4.407  0.00  0.00     0.018 A 
ATOM      3  C4   11 d          -0.524 -11.941  -4.373  0.00  0.00     0.013 A 
ATOM      4  C5   11 d          -1.367 -10.969  -4.953  0.00  0.00    -0.026 A 
ATOM      5  C6   11 d          -2.851 -11.138  -4.944  0.00  0.00    -0.026 A 
ATOM      6  C7   11 d          -3.631 -10.720  -6.046  0.00  0.00     0.012 A 
ATOM      7  C8   11 d          -5.024 -10.890  -6.045  0.00  0.00     0.001 A 
ATOM      8  C9   11 d          -5.658 -11.483  -4.945  0.00  0.00     0.000 A 
ATOM      9  C10  11 d          -4.900 -11.902  -3.844  0.00  0.00     0.001 A 
ATOM     10  C11  11 d          -3.507 -11.732  -3.842  0.00  0.00     0.012 A 
ATOM     11  C12  11 d          -0.771  -9.838  -5.552  0.00  0.00     0.013 A 
ATOM     12  C13  11 d           0.624  -9.695  -5.588  0.00  0.00     0.018 A 
ENDROOT
BRANCH   1  13
ATOM     13  C1   11 d           2.948 -10.554  -5.101  0.00  0.00     0.253 C 
ATOM     14  N1   11 d           3.567  -9.530  -5.865  0.00  0.00    -0.344 N 
ATOM     15  C14  11 d           4.155  -8.329  -5.203  0.00  0.00     0.152 C 
ATOM     16  C17  11 d           3.645  -9.632  -7.353  0.00  0.00     0.152 C 
ATOM     17  C15  11 d           5.534  -8.041  -5.806  0.00  0.00     0.187 C 
ATOM     18  O1   11 d           5.468  -7.980  -7.259  0.00  0.00    -0.388 OA
ATOM     19  C16  11 d           5.055  -9.260  -7.819  0.00  0.00     0.187 C 
ATOM     20  O2   11 d           3.699 -11.390  -4.486  0.00  0.00    -0.267 OA
ENDBRANCH   1  13
TORSDOF 1
