REMARK  4 active torsions:
REMARK  status: ('A' for Active; 'I' for Inactive)
REMARK    1  A    between atoms: C2_2  and  C3_3 
REMARK    2  A    between atoms: N1_4  and  C4_5 
REMARK    3  A    between atoms: C6_7  and  C10_11 
REMARK    4  A    between atoms: C10_11  and  O1_12 
ROOT
ATOM      1  C3   11 d           2.417 -10.722  -3.451  0.00  0.00     0.130 C 
ATOM      2  N1   11 d           3.254  -9.729  -3.266  0.00  0.00    -0.260 NA
ENDROOT
BRANCH   2   3
ATOM      3  C4   11 d           4.470  -9.935  -2.510  0.00  0.00     0.057 A 
ATOM      4  C5   11 d           5.220 -11.133  -2.547  0.00  0.00     0.040 A 
ATOM      5  C6   11 d           6.403 -11.269  -1.790  0.00  0.00    -0.033 A 
ATOM      6  C7   11 d           6.860 -10.170  -1.036  0.00  0.00     0.009 A 
ATOM      7  C8   11 d           6.130  -8.973  -1.008  0.00  0.00     0.003 A 
ATOM      8  C9   11 d           4.944  -8.857  -1.745  0.00  0.00     0.031 A 
BRANCH   5   9
ATOM      9  C10  11 d           7.237 -12.522  -1.902  0.00  0.00     0.203 C 
BRANCH   9  10
ATOM     10  O1   11 d           8.644 -12.201  -1.974  0.00  0.00    -0.396 OA
ATOM     11  H8   11 d           9.151 -13.102  -2.030  0.00  0.00     0.209 HD
ENDBRANCH   9  10
ENDBRANCH   5   9
ENDBRANCH   2   3
BRANCH   1  12
ATOM     12  C2   11 d           1.170 -10.569  -4.255  0.00  0.00     0.003 A 
ATOM     13  C1   11 d           0.871  -9.446  -5.075  0.00  0.00     0.047 A 
ATOM     14  C14  11 d          -0.339  -9.402  -5.789  0.00  0.00     0.048 A 
ATOM     15 Cl2   11 d           1.960  -8.047  -5.294  0.00  0.00    -0.083 Cl
ATOM     16  C13  11 d          -1.257 -10.456  -5.704  0.00  0.00     0.035 A 
ATOM     17  C12  11 d          -0.970 -11.567  -4.902  0.00  0.00     0.025 A 
ATOM     18 Cl1   11 d          -2.785 -10.386  -6.615  0.00  0.00    -0.084 Cl
ATOM     19  C11  11 d           0.234 -11.624  -4.187  0.00  0.00     0.016 A 
ENDBRANCH   1  12
TORSDOF 4
