REMARK  4 active torsions:
REMARK  status: ('A' for Active; 'I' for Inactive)
REMARK    1  A    between atoms: C1_1  and  C2_2 
REMARK    2  A    between atoms: C2_2  and  C3_4 
REMARK    3  A    between atoms: C3_4  and  C4_5 
REMARK    4  A    between atoms: C4_5  and  C5_6 
ROOT
ATOM      1  C1   11 d          -1.962   4.179  -5.760  0.00  0.00     0.046 A 
ATOM      2  C6   11 d          -2.203   5.039  -6.826  0.00  0.00     0.009 A 
ATOM      3  C7   11 d          -1.585   4.506  -7.941  0.00  0.00     0.068 A 
ATOM      4  C8   11 d          -1.650   5.133  -9.190  0.00  0.00     0.032 A 
ATOM      5  C9   11 d          -2.357   6.348  -9.289  0.00  0.00     0.002 A 
ATOM      6  C10  11 d          -2.980   6.905  -8.151  0.00  0.00     0.001 A 
ATOM      7  C11  11 d          -2.909   6.252  -6.904  0.00  0.00     0.015 A 
ATOM      8  N1   11 d          -0.972   3.354  -7.619  0.00  0.00    -0.252 NA
ATOM      9  C12  11 d          -1.162   3.152  -6.290  0.00  0.00     0.046 A 
ATOM     10  C13  11 d          -0.783   1.861  -5.630  0.00  0.00     0.071 C 
ENDROOT
BRANCH   1  11
ATOM     11  C2   11 d          -2.463   4.325  -4.363  0.00  0.00     0.163 C 
ATOM     12  O1   11 d          -3.477   5.042  -4.151  0.00  0.00    -0.292 OA
BRANCH  11  13
ATOM     13  C3   11 d          -1.686   3.773  -3.190  0.00  0.00     0.094 C 
BRANCH  13  14
ATOM     14  C4   11 d          -1.841   4.557  -1.881  0.00  0.00     0.121 C 
BRANCH  14  15
ATOM     15  C5   11 d          -0.974   4.022  -0.777  0.00  0.00     0.172 C 
ATOM     16  O2   11 d          -0.593   2.769  -0.778  0.00  0.00    -0.648 OA
ATOM     17  O3   11 d          -0.451   4.850   0.089  0.00  0.00    -0.648 OA
ENDBRANCH  14  15
ENDBRANCH  13  14
ENDBRANCH  11  13
ENDBRANCH   1  11
TORSDOF 4
