REMARK  3 active torsions:
REMARK  status: ('A' for Active; 'I' for Inactive)
REMARK       I    between atoms: C1_1  and  N1_2 
REMARK    1  A    between atoms: C4_5  and  C5_6 
REMARK       I    between atoms: C5_6  and  N2_8 
REMARK    2  A    between atoms: N2_8  and  C6_9 
REMARK    3  A    between atoms: N3_14  and  C14_18 
ROOT
ATOM      1  C6   11 d          -3.724  -1.308 -11.877  0.00  0.00     0.035 C 
ATOM      2  C7   11 d          -4.037  -0.883 -13.192  0.00  0.00     0.044 C 
ATOM      3  C8   11 d          -3.071  -1.035 -14.200  0.00  0.00     0.005 A 
ATOM      4  C9   11 d          -3.070  -0.607 -15.512  0.00  0.00     0.003 A 
ATOM      5  C10  11 d          -1.804  -0.869 -16.019  0.00  0.00     0.046 A 
ATOM      6  N3   11 d          -1.033  -1.469 -15.066  0.00  0.00    -0.346 N 
ATOM      7  C11  11 d          -1.833  -1.625 -13.961  0.00  0.00     0.046 A 
ATOM      8  C12  11 d          -1.590  -2.213 -12.711  0.00  0.00     0.033 C 
ATOM      9  C13  11 d          -2.539  -2.069 -11.687  0.00  0.00     0.032 C 
ATOM     10  C16  11 d          -1.470  -0.480 -17.329  0.00  0.00     0.030 A 
ATOM     11  C17  11 d          -2.454   0.143 -18.122  0.00  0.00     0.002 A 
ATOM     12  C18  11 d          -3.746   0.380 -17.605  0.00  0.00     0.001 A 
ATOM     13  C19  11 d          -4.065   0.013 -16.282  0.00  0.00     0.014 A 
ENDROOT
BRANCH   1  14
ATOM     14  N2   11 d          -4.587  -0.824 -10.774  0.00  0.00    -0.327 N 
ATOM     15  C5   11 d          -4.397  -1.058  -9.368  0.00  0.00     0.226 C 
ATOM     16  O1   11 d          -3.425  -1.781  -8.957  0.00  0.00    -0.273 OA
ATOM     17  H6   11 d          -5.427  -0.221 -11.063  0.00  0.00     0.169 HD
BRANCH  15  18
ATOM     18  C4   11 d          -5.329  -0.437  -8.327  0.00  0.00     0.081 C 
ATOM     19  C3   11 d          -4.861  -0.776  -6.883  0.00  0.00     0.034 C 
ATOM     20  C2   11 d          -5.586   0.009  -5.788  0.00  0.00     0.126 C 
ATOM     21  N1   11 d          -5.487   1.466  -6.115  0.00  0.00    -0.352 N 
ATOM     22  C1   11 d          -4.841   2.395  -5.226  0.00  0.00     0.215 C 
ATOM     23  C21  11 d          -6.098   1.853  -7.422  0.00  0.00     0.126 C 
ATOM     24  O2   11 d          -4.298   1.969  -4.145  0.00  0.00    -0.274 OA
ATOM     25  C22  11 d          -4.770   3.868  -5.511  0.00  0.00     0.117 C 
ATOM     26  C20  11 d          -5.375   1.100  -8.540  0.00  0.00     0.034 C 
ENDBRANCH  15  18
ENDBRANCH   1  14
BRANCH   6  27
ATOM     27  C14  11 d           0.381  -1.845 -15.300  0.00  0.00     0.125 C 
ATOM     28  C15  11 d           1.035  -2.884 -14.398  0.00  0.00     0.027 C 
ENDBRANCH   6  27
TORSDOF 3
