REMARK  1 active torsions:
REMARK  status: ('A' for Active; 'I' for Inactive)
REMARK    1  A    between atoms: C4_5  and  N1_6 
REMARK       I    between atoms: N1_6  and  C5_7 
ROOT
ATOM      1  C1   11 d           0.239  -4.647  -3.450  0.00  0.00     0.135 C 
ATOM      2  O1   11 d          -0.198  -5.030  -4.565  0.00  0.00    -0.297 OA
ATOM      3  C2   11 d           0.263  -5.554  -2.240  0.00  0.00     0.058 C 
ATOM      4  C3   11 d          -0.573  -4.867  -1.133  0.00  0.00     0.043 C 
ATOM      5  C4   11 d          -0.021  -3.440  -0.810  0.00  0.00     0.034 C 
ATOM      6  C7   11 d          -0.080  -2.596  -2.122  0.00  0.00     0.043 C 
ATOM      7  C8   11 d           0.775  -3.251  -3.232  0.00  0.00     0.058 C 
ATOM      8  C9   11 d           2.240  -3.381  -2.746  0.00  0.00     0.017 C 
ATOM      9  C10  11 d           2.302  -4.262  -1.469  0.00  0.00    -0.011 C 
ATOM     10  C11  11 d           1.458  -3.602  -0.354  0.00  0.00     0.035 C 
ATOM     11  C12  11 d           1.734  -5.671  -1.778  0.00  0.00     0.017 C 
ENDROOT
BRANCH   5  12
ATOM     12  N1   11 d          -0.851  -2.824   0.284  0.00  0.00    -0.352 N 
ATOM     13  C5   11 d          -0.638  -1.518   0.826  0.00  0.00     0.214 C 
ATOM     14  O2   11 d           0.301  -0.771   0.380  0.00  0.00    -0.274 OA
ATOM     15  C6   11 d          -1.495  -1.002   1.939  0.00  0.00     0.117 C 
ATOM     16  H4   11 d          -1.660  -3.399   0.699  0.00  0.00     0.163 HD
ENDBRANCH   5  12
TORSDOF 1
