REMARK  0 active torsions:
REMARK  status: ('A' for Active; 'I' for Inactive)
ROOT
ATOM      1  C1   11 d          -2.947  -3.901   3.144  0.00  0.00     0.282 A 
ATOM      2  C2   11 d          -4.045  -3.724   2.282  0.00  0.00     0.064 A 
ATOM      3  C3   11 d          -3.868  -2.880   1.165  0.00  0.00     0.096 A 
ATOM      4  N1   11 d          -2.664  -2.283   0.974  0.00  0.00    -0.131 NA
ATOM      5  N2   11 d          -1.673  -2.471   1.810  0.00  0.00    -0.057 NA
ATOM      6  N3   11 d          -1.767  -3.239   2.877  0.00  0.00    -0.178 N 
ATOM      7  C4   11 d          -0.598  -3.350   3.725  0.00  0.00     0.064 A 
ATOM      8  C5   11 d           0.674  -3.528   3.148  0.00  0.00     0.039 A 
ATOM      9  C6   11 d           1.837  -3.608   3.943  0.00  0.00    -0.054 A 
ATOM     10  C7   11 d           1.712  -3.583   5.357  0.00  0.00    -0.056 A 
ATOM     11  C8   11 d           0.444  -3.366   5.930  0.00  0.00     0.009 A 
ATOM     12  C9   11 d          -0.697  -3.253   5.125  0.00  0.00     0.032 A 
ATOM     13  C10  11 d           2.918  -3.600   6.266  0.00  0.00     0.049 C 
ATOM     14  C11  11 d           3.154  -3.894   3.263  0.00  0.00     0.049 C 
ATOM     15  C12  11 d          -4.923  -2.665   0.264  0.00  0.00     0.034 A 
ATOM     16  C13  11 d          -6.161  -3.289   0.473  0.00  0.00     0.002 A 
ATOM     17  C14  11 d          -6.347  -4.130   1.581  0.00  0.00     0.001 A 
ATOM     18  C15  11 d          -5.295  -4.351   2.484  0.00  0.00     0.020 A 
ATOM     19  O1   11 d          -3.041  -4.676   4.133  0.00  0.00    -0.265 OA
ENDROOT
TORSDOF 0
