REMARK  3 active torsions:
REMARK  status: ('A' for Active; 'I' for Inactive)
REMARK    1  A    between atoms: N1_5  and  C4_6 
REMARK    2  A    between atoms: C10_13  and  C11_14 
REMARK    3  A    between atoms: C14_17  and  O1_18 
ROOT
ATOM      1  C1   11 d           3.135  -2.620  -3.561  0.00  0.00     0.264 A 
ATOM      2  C2   11 d           2.016  -3.587  -3.629  0.00  0.00     0.077 A 
ATOM      3  S1   11 d           2.002  -4.441  -5.229  0.00  0.00    -0.046 SA
ATOM      4  C3   11 d           3.495  -3.510  -5.712  0.00  0.00     0.174 A 
ATOM      5  N1   11 d           4.160  -3.616  -6.840  0.00  0.00    -0.225 NA
ATOM      6  N2   11 d           3.945  -2.584  -4.699  0.00  0.00    -0.301 N 
ATOM      7  C10  11 d           1.071  -3.866  -2.701  0.00  0.00     0.036 C 
ATOM      8  O2   11 d           3.380  -1.859  -2.567  0.00  0.00    -0.267 OA
ATOM      9  H6   11 d           4.796  -1.932  -4.785  0.00  0.00     0.171 HD
ENDROOT
BRANCH   7  10
ATOM     10  C11  11 d           1.007  -3.305  -1.331  0.00  0.00    -0.035 A 
ATOM     11  C12  11 d           2.117  -3.339  -0.461  0.00  0.00     0.014 A 
ATOM     12  C13  11 d           2.025  -2.787   0.826  0.00  0.00     0.037 A 
ATOM     13  C14  11 d           0.815  -2.234   1.273  0.00  0.00     0.068 A 
ATOM     14  C16  11 d          -0.293  -2.201   0.412  0.00  0.00     0.037 A 
ATOM     15  C17  11 d          -0.206  -2.754  -0.875  0.00  0.00     0.014 A 
BRANCH  13  16
ATOM     16  O1   11 d           0.760  -1.574   2.528  0.00  0.00    -0.356 OA
ATOM     17  C15  11 d           0.326  -2.501   3.553  0.00  0.00     0.210 C 
ENDBRANCH  13  16
ENDBRANCH   7  10
BRANCH   5  18
ATOM     18  C4   11 d           3.688  -4.502  -7.877  0.00  0.00     0.059 A 
ATOM     19  C5   11 d           2.414  -4.353  -8.467  0.00  0.00     0.031 A 
ATOM     20  C6   11 d           2.005  -5.219  -9.493  0.00  0.00     0.002 A 
ATOM     21  C7   11 d           2.868  -6.228  -9.945  0.00  0.00     0.000 A 
ATOM     22  C8   11 d           4.144  -6.367  -9.379  0.00  0.00     0.002 A 
ATOM     23  C9   11 d           4.555  -5.501  -8.354  0.00  0.00     0.031 A 
ENDBRANCH   5  18
TORSDOF 3
