REMARK  4 active torsions:
REMARK  status: ('A' for Active; 'I' for Inactive)
REMARK    1  A    between atoms: C1_1  and  C2_2 
REMARK    2  A    between atoms: C5_5  and  O1_8 
REMARK    3  A    between atoms: N1_9  and  N2_10 
REMARK       I    between atoms: N2_10  and  C8_11 
REMARK    4  A    between atoms: C8_11  and  C9_12 
ROOT
ATOM      1  C1   11 d           2.500  -9.343  -5.335  0.00  0.00     0.061 C 
ATOM      2  N1   11 d           2.543  -8.649  -6.460  0.00  0.00    -0.176 NA
ATOM      3  C14  11 d           3.661  -9.378  -4.355  0.00  0.00     0.073 C 
ENDROOT
BRANCH   2   4
ATOM      4  N2   11 d           3.708  -7.994  -6.882  0.00  0.00    -0.243 N 
ATOM      5  C8   11 d           4.902  -8.705  -7.222  0.00  0.00     0.271 C 
ATOM      6  O2   11 d           4.920  -9.985  -7.131  0.00  0.00    -0.266 OA
ATOM      7  H6   11 d           3.648  -6.925  -6.941  0.00  0.00     0.192 HD
BRANCH   5   8
ATOM      8  C9   11 d           6.131  -7.993  -7.684  0.00  0.00     0.036 A 
ATOM      9  C10  11 d           7.393  -8.606  -7.536  0.00  0.00     0.036 A 
ATOM     10  C11  11 d           8.548  -7.938  -7.967  0.00  0.00     0.117 A 
ATOM     11  N3   11 d           8.450  -6.704  -8.536  0.00  0.00    -0.273 NA
ATOM     12  C12  11 d           7.248  -6.086  -8.706  0.00  0.00     0.117 A 
ATOM     13  C13  11 d           6.069  -6.717  -8.286  0.00  0.00     0.036 A 
ENDBRANCH   5   8
ENDBRANCH   2   4
BRANCH   1  14
ATOM     14  C2   11 d           1.188  -9.993  -4.982  0.00  0.00    -0.010 A 
ATOM     15  C3   11 d           0.038  -9.761  -5.778  0.00  0.00     0.016 A 
ATOM     16  C4   11 d          -1.196 -10.345  -5.456  0.00  0.00     0.037 A 
ATOM     17  C5   11 d          -1.306 -11.192  -4.347  0.00  0.00     0.065 A 
ATOM     18  C6   11 d          -0.188 -11.420  -3.535  0.00  0.00     0.037 A 
ATOM     19  C7   11 d           1.051 -10.843  -3.857  0.00  0.00     0.016 A 
BRANCH  17  20
ATOM     20  O1   11 d          -2.566 -11.714  -3.980  0.00  0.00    -0.361 OA
ATOM     21  H5   11 d          -2.636 -12.622  -4.471  0.00  0.00     0.217 HD
ENDBRANCH  17  20
ENDBRANCH   1  14
TORSDOF 4
