REMARK  6 active torsions:
REMARK  status: ('A' for Active; 'I' for Inactive)
REMARK    1  A    between atoms: C1_1  and  C2_2 
REMARK       I    between atoms: C1_1  and  N1_11 
REMARK    2  A    between atoms: C5_5  and  C8_8 
REMARK    3  A    between atoms: N1_11  and  C10_12 
REMARK    4  A    between atoms: C10_12  and  N2_14 
REMARK    5  A    between atoms: N2_14  and  C11_15 
REMARK    6  A    between atoms: C21_27  and  O2_30 
ROOT
ATOM      1  C11  11 d           7.443  -9.458  -2.308  0.00  0.00     0.035 A 
ATOM      2  C12  11 d           7.931 -10.033  -1.112  0.00  0.00     0.046 A 
ATOM      3  C13  11 d           9.264  -9.848  -0.669  0.00  0.00     0.035 A 
ATOM      4  C14  11 d           9.744 -10.470   0.604  0.00  0.00     0.112 A 
ATOM      5  N3   11 d          10.982 -10.291   1.151  0.00  0.00    -0.239 NA
ATOM      6  C15  11 d          11.090 -10.992   2.308  0.00  0.00     0.075 A 
ATOM      7  C16  11 d           9.920 -11.673   2.592  0.00  0.00     0.035 A 
ATOM      8  S2   11 d           8.944 -11.387   1.502  0.00  0.00    -0.067 SA
ATOM      9  C17  11 d           9.776 -12.468   3.735  0.00  0.00     0.021 A 
ATOM     10  C18  11 d          10.878 -12.562   4.609  0.00  0.00     0.002 A 
ATOM     11  C19  11 d          12.080 -11.871   4.327  0.00  0.00     0.002 A 
ATOM     12  C20  11 d          12.193 -11.077   3.166  0.00  0.00     0.033 A 
ATOM     13  C21  11 d          10.124  -9.047  -1.456  0.00  0.00     0.078 A 
ATOM     14  C22  11 d           9.663  -8.490  -2.653  0.00  0.00     0.040 A 
ATOM     15  C23  11 d           8.341  -8.679  -3.072  0.00  0.00     0.032 A 
ENDROOT
BRANCH   1  16
ATOM     16  N2   11 d           6.021  -9.739  -2.649  0.00  0.00    -0.333 N 
ATOM     17  H11  11 d           5.512 -10.364  -1.939  0.00  0.00     0.168 HD
BRANCH  16  18
ATOM     18  C10  11 d           5.183  -9.310  -3.800  0.00  0.00     0.179 C 
ATOM     19  S1   11 d           5.682  -8.456  -4.865  0.00  0.00    -0.040 SA
BRANCH  18  20
ATOM     20  N1   11 d           3.785  -9.816  -3.805  0.00  0.00    -0.299 N 
ATOM     21  C1   11 d           2.757  -9.570  -4.785  0.00  0.00     0.257 C 
ATOM     22  O1   11 d           3.026  -8.830  -5.797  0.00  0.00    -0.267 OA
ATOM     23  H10  11 d           3.529 -10.434  -2.975  0.00  0.00     0.171 HD
BRANCH  21  24
ATOM     24  C2   11 d           1.368 -10.146  -4.688  0.00  0.00     0.032 A 
ATOM     25  C3   11 d           0.402  -9.766  -5.648  0.00  0.00     0.017 A 
ATOM     26  C4   11 d          -0.898 -10.290  -5.622  0.00  0.00     0.008 A 
ATOM     27  C5   11 d          -1.276 -11.233  -4.649  0.00  0.00    -0.059 A 
ATOM     28  C6   11 d          -0.332 -11.591  -3.664  0.00  0.00     0.008 A 
ATOM     29  C7   11 d           0.970 -11.065  -3.688  0.00  0.00     0.017 A 
BRANCH  27  30
ATOM     30  C8   11 d          -2.707 -11.734  -4.617  0.00  0.00     0.034 C 
ATOM     31  C9   11 d          -3.319 -11.892  -3.224  0.00  0.00     0.010 C 
ENDBRANCH  27  30
ENDBRANCH  21  24
ENDBRANCH  18  20
ENDBRANCH  16  18
ENDBRANCH   1  16
BRANCH  13  32
ATOM     32  O2   11 d          11.493  -8.877  -1.142  0.00  0.00    -0.360 OA
ATOM     33  H19  11 d          11.523  -8.103  -0.455  0.00  0.00     0.217 HD
ENDBRANCH  13  32
TORSDOF 6
