REMARK  3 active torsions:
REMARK  status: ('A' for Active; 'I' for Inactive)
REMARK    1  A    between atoms: C12_14  and  N3_25 
REMARK    2  A    between atoms: C14_16  and  N2_17 
REMARK    3  A    between atoms: N2_17  and  C15_18 
ROOT
ATOM      1  C1   11 d          -2.886   6.747  -2.446  0.00  0.00     0.196 A 
ATOM      2  C2   11 d          -3.810   5.828  -1.698  0.00  0.00     0.057 A 
ATOM      3  C3   11 d          -3.167   4.752  -1.113  0.00  0.00     0.051 A 
ATOM      4  C4   11 d          -1.846   4.441  -1.148  0.00  0.00     0.126 A 
ATOM      5  C5   11 d          -0.922   5.239  -1.837  0.00  0.00     0.015 A 
ATOM      6  C6   11 d          -1.408   6.408  -2.503  0.00  0.00     0.028 A 
ATOM      7  C7   11 d          -0.494   7.222  -3.202  0.00  0.00     0.016 A 
ATOM      8  C8   11 d           0.869   6.889  -3.242  0.00  0.00     0.001 A 
ATOM      9  C9   11 d           1.337   5.741  -2.585  0.00  0.00     0.001 A 
ATOM     10  C10  11 d           0.447   4.916  -1.883  0.00  0.00     0.015 A 
ATOM     11  O1   11 d          -1.636   3.337  -0.467  0.00  0.00    -0.211 OA
ATOM     12  N1   11 d          -2.748   2.942  -0.010  0.00  0.00    -0.125 NA
ATOM     13  C11  11 d          -3.755   3.779  -0.375  0.00  0.00     0.125 A 
ATOM     14  C12  11 d          -5.141   3.794  -0.141  0.00  0.00     0.062 A 
ATOM     15  C13  11 d          -5.864   4.876  -0.728  0.00  0.00     0.062 A 
ATOM     16  C14  11 d          -5.218   5.901  -1.495  0.00  0.00     0.050 A 
ATOM     17  O2   11 d          -3.323   7.782  -3.012  0.00  0.00    -0.286 OA
ENDROOT
BRANCH  16  18
ATOM     18  N2   11 d          -5.971   6.922  -2.064  0.00  0.00    -0.355 N 
ATOM     19  H6   11 d          -5.740   7.216  -2.988  0.00  0.00     0.166 HD
BRANCH  18  20
ATOM     20  C15  11 d          -7.031   7.559  -1.424  0.00  0.00     0.032 A 
ATOM     21  C16  11 d          -8.095   8.060  -2.199  0.00  0.00     0.030 A 
ATOM     22  C17  11 d          -9.186   8.698  -1.589  0.00  0.00     0.009 A 
ATOM     23  C18  11 d          -9.216   8.883  -0.194  0.00  0.00    -0.062 A 
ATOM     24  C19  11 d          -8.163   8.368   0.586  0.00  0.00     0.009 A 
ATOM     25  C21  11 d         -10.434   9.465   0.468  0.00  0.00     0.048 C 
ATOM     26  C20  11 d          -7.072   7.731  -0.024  0.00  0.00     0.030 A 
ENDBRANCH  18  20
ENDBRANCH  16  18
BRANCH  14  27
ATOM     27  N3   11 d          -5.734   2.790   0.621  0.00  0.00    -0.392 N 
ATOM     28  C22  11 d          -7.110   2.747   0.929  0.00  0.00     0.146 C 
ATOM     29  H14  11 d          -5.158   2.056   0.974  0.00  0.00     0.159 HD
ENDBRANCH  14  27
TORSDOF 3
