REMARK  5 active torsions:
REMARK  status: ('A' for Active; 'I' for Inactive)
REMARK    1  A    between atoms: C1_1  and  C2_2 
REMARK    2  A    between atoms: C1_1  and  O2_23 
REMARK    3  A    between atoms: C5_5  and  N1_8 
REMARK    4  A    between atoms: N1_8  and  C8_9 
REMARK    5  A    between atoms: O2_23  and  C16_24 
ROOT
ATOM      1  C8   11 d          -3.236 -11.873  -3.917  0.00  0.00     0.179 A 
ATOM      2  C9   11 d          -4.562 -12.254  -4.201  0.00  0.00     0.222 A 
ATOM      3  N2   11 d          -5.308 -12.068  -5.303  0.00  0.00    -0.105 NA
ATOM      4  N3   11 d          -6.468 -12.614  -5.051  0.00  0.00    -0.022 NA
ATOM      5  N4   11 d          -6.479 -13.131  -3.850  0.00  0.00    -0.038 NA
ATOM      6  N5   11 d          -5.317 -12.918  -3.316  0.00  0.00    -0.188 N 
ATOM      7  C10  11 d          -4.857 -13.273  -2.082  0.00  0.00     0.091 A 
ATOM      8  C11  11 d          -3.528 -12.892  -1.751  0.00  0.00     0.088 A 
ATOM      9  N6   11 d          -2.771 -12.201  -2.667  0.00  0.00    -0.225 NA
ATOM     10  C12  11 d          -2.998 -13.235  -0.497  0.00  0.00     0.034 A 
ATOM     11  C13  11 d          -3.780 -13.954   0.423  0.00  0.00     0.002 A 
ATOM     12  C14  11 d          -5.093 -14.328   0.097  0.00  0.00     0.002 A 
ATOM     13  C15  11 d          -5.636 -13.988  -1.153  0.00  0.00     0.034 A 
ENDROOT
BRANCH   1  14
ATOM     14  N1   11 d          -2.482 -11.177  -4.863  0.00  0.00    -0.338 N 
ATOM     15  H5   11 d          -2.984 -10.831  -5.651  0.00  0.00     0.167 HD
BRANCH  14  16
ATOM     16  C5   11 d          -1.107 -10.913  -4.829  0.00  0.00     0.033 A 
ATOM     17  C4   11 d          -0.615  -9.928  -5.712  0.00  0.00     0.030 A 
ATOM     18  C3   11 d           0.752  -9.629  -5.782  0.00  0.00     0.020 A 
ATOM     19  C2   11 d           1.676 -10.299  -4.958  0.00  0.00     0.039 A 
ATOM     20  C7   11 d           1.197 -11.279  -4.067  0.00  0.00     0.020 A 
ATOM     21  C6   11 d          -0.172 -11.596  -4.014  0.00  0.00     0.030 A 
BRANCH  19  22
ATOM     22  C1   11 d           3.130  -9.991  -5.040  0.00  0.00     0.293 C 
ATOM     23  O1   11 d           3.572  -9.266  -5.971  0.00  0.00    -0.259 OA
BRANCH  22  24
ATOM     24  O2   11 d           4.036 -10.517  -4.072  0.00  0.00    -0.318 OA
BRANCH  24  25
ATOM     25  C16  11 d           4.759  -9.444  -3.416  0.00  0.00     0.174 C 
ATOM     26  C17  11 d           5.539 -10.014  -2.242  0.00  0.00     0.034 C 
ENDBRANCH  24  25
ENDBRANCH  22  24
ENDBRANCH  19  22
ENDBRANCH  14  16
ENDBRANCH   1  14
TORSDOF 5
