REMARK  1 active torsions:
REMARK  status: ('A' for Active; 'I' for Inactive)
REMARK    1  A    between atoms: C12_13  and  N2_16 
ROOT
ATOM      1  C1   11 d          -1.112  -0.387  -9.745  0.00  0.00     0.052 A 
ATOM      2  C2   11 d          -0.717  -0.493 -11.210  0.00  0.00     0.006 C 
ATOM      3  C3   11 d          -0.663   0.931 -11.834  0.00  0.00     0.020 C 
ATOM      4  C4   11 d          -0.257   0.853 -13.326  0.00  0.00    -0.013 C 
ATOM      5  C5   11 d          -1.298   0.009 -14.098  0.00  0.00     0.009 C 
ATOM      6  C6   11 d          -1.349  -1.419 -13.507  0.00  0.00    -0.013 C 
ATOM      7  C7   11 d          -1.750  -1.341 -12.015  0.00  0.00     0.020 C 
ATOM      8  C8   11 d           0.043  -2.080 -13.631  0.00  0.00     0.009 C 
ATOM      9  C9   11 d           1.084  -1.240 -12.857  0.00  0.00    -0.013 C 
ATOM     10  C10  11 d           0.681  -1.165 -11.364  0.00  0.00     0.020 C 
ATOM     11  C11  11 d           1.135   0.190 -13.447  0.00  0.00     0.009 C 
ATOM     12  N1   11 d          -2.280  -0.861  -9.221  0.00  0.00    -0.228 NA
ATOM     13  C12  11 d          -2.321  -0.654  -7.887  0.00  0.00     0.164 A 
ATOM     14  S1   11 d          -1.056   0.013  -7.444  0.00  0.00    -0.062 SA
ATOM     15  C13  11 d          -0.313   0.147  -8.733  0.00  0.00     0.081 A 
ENDROOT
BRANCH  13  16
ATOM     16  N2   11 d          -3.364  -1.008  -7.070  0.00  0.00    -0.378 N 
ATOM     17  H17  11 d          -4.163  -1.453  -7.457  0.00  0.00     0.158 HD
ATOM     18  H18  11 d          -3.331  -0.824  -6.094  0.00  0.00     0.158 HD
ENDBRANCH  13  16
TORSDOF 1
