REMARK  6 active torsions:
REMARK  status: ('A' for Active; 'I' for Inactive)
REMARK    1  A    between atoms: C2_2  and  O3_21 
REMARK       I    between atoms: C3_4  and  N5_10 
REMARK    2  A    between atoms: N5_10  and  C6_11 
REMARK    3  A    between atoms: C9_14  and  S1_15 
REMARK    4  A    between atoms: S1_15  and  N6_18 
REMARK    5  A    between atoms: O3_21  and  C12_22 
REMARK    6  A    between atoms: C12_22  and  C13_23 
ROOT
ATOM      1  C1   11 d          -3.255   0.808  -9.684  0.00  0.00     0.158 A 
ATOM      2  C2   11 d          -2.731   2.048  -9.315  0.00  0.00     0.216 A 
ATOM      3  N1   11 d          -1.678   2.051  -8.434  0.00  0.00    -0.035 NA
ATOM      4  C3   11 d          -1.125   0.894  -7.942  0.00  0.00     0.731 A 
ATOM      5  N2   11 d          -1.643  -0.319  -8.325  0.00  0.00    -0.042 NA
ATOM      6  C4   11 d          -2.690  -0.338  -9.185  0.00  0.00     0.181 A 
ATOM      7  N3   11 d          -3.363  -1.381  -9.690  0.00  0.00    -0.333 N 
ATOM      8  C5   11 d          -4.338  -0.882 -10.494  0.00  0.00     0.209 A 
ATOM      9  N4   11 d          -4.280   0.475 -10.495  0.00  0.00    -0.236 NA
ATOM     10  N5   11 d          -0.102   0.994  -7.018  0.00  0.00    -0.188 N 
ATOM     11  H1   11 d          -3.164  -2.394  -9.491  0.00  0.00     0.168 HD
ATOM     12  H3   11 d           0.115   1.897  -6.658  0.00  0.00     0.184 HD
ENDROOT
BRANCH  10  13
ATOM     13  C6   11 d           0.636  -0.083  -6.551  0.00  0.00     0.049 A 
ATOM     14  C7   11 d           0.913  -0.170  -5.173  0.00  0.00     0.031 A 
ATOM     15  C8   11 d           1.659  -1.242  -4.662  0.00  0.00     0.027 A 
ATOM     16  C9   11 d           2.150  -2.236  -5.525  0.00  0.00     0.074 A 
ATOM     17  C10  11 d           1.900  -2.143  -6.904  0.00  0.00     0.027 A 
ATOM     18  C11  11 d           1.150  -1.073  -7.416  0.00  0.00     0.031 A 
BRANCH  16  19
ATOM     19  S1   11 d           3.091  -3.627  -4.887  0.00  0.00     0.239 S 
ATOM     20  O1   11 d           2.362  -4.930  -5.222  0.00  0.00    -0.206 OA
ATOM     21  O2   11 d           3.186  -3.551  -3.361  0.00  0.00    -0.206 OA
BRANCH  19  22
ATOM     22  N6   11 d           4.709  -3.696  -5.549  0.00  0.00    -0.225 NA
ATOM     23  H6   11 d           5.270  -4.342  -4.909  0.00  0.00     0.136 HD
ATOM     24  H7   11 d           4.637  -4.192  -6.492  0.00  0.00     0.136 HD
ENDBRANCH  19  22
ENDBRANCH  16  19
ENDBRANCH  10  13
BRANCH   2  25
ATOM     25  O3   11 d          -3.344   3.244  -9.780  0.00  0.00    -0.332 OA
BRANCH  25  26
ATOM     26  C12  11 d          -3.363   4.288  -8.766  0.00  0.00     0.182 C 
BRANCH  26  27
ATOM     27  C13  11 d          -4.405   5.360  -9.139  0.00  0.00     0.010 C 
ATOM     28  C14  11 d          -4.288   6.630  -8.266  0.00  0.00     0.007 C 
ATOM     29  C15  11 d          -4.824   6.427  -6.840  0.00  0.00     0.000 C 
ATOM     30  C16  11 d          -6.268   5.909  -6.855  0.00  0.00     0.000 C 
ATOM     31  C17  11 d          -6.409   4.633  -7.696  0.00  0.00     0.000 C 
ATOM     32  C18  11 d          -5.857   4.826  -9.117  0.00  0.00     0.007 C 
ENDBRANCH  26  27
ENDBRANCH  25  26
ENDBRANCH   2  25
TORSDOF 6
