REMARK  3 active torsions:
REMARK  status: ('A' for Active; 'I' for Inactive)
REMARK    1  A    between atoms: C13_16  and  C14_17 
REMARK    2  A    between atoms: C15_18  and  C16_19 
REMARK    3  A    between atoms: C17_20  and  N3_21 
ROOT
ATOM      1  C1   11 d           1.412  -4.874   6.120  0.00  0.00     0.036 C 
ATOM      2  C2   11 d           0.195  -4.031   5.809  0.00  0.00     0.160 C 
ATOM      3  O1   11 d           0.299  -2.997   5.099  0.00  0.00    -0.293 OA
ATOM      4  C3   11 d          -1.165  -4.354   6.374  0.00  0.00     0.092 C 
ATOM      5  C4   11 d          -1.116  -5.357   7.546  0.00  0.00    -0.036 C 
ATOM      6  C5   11 d          -0.215  -6.538   7.116  0.00  0.00     0.067 C 
ATOM      7  C6   11 d           1.175  -6.140   6.624  0.00  0.00     0.022 C 
ATOM      8  N1   11 d           2.125  -7.154   6.760  0.00  0.00    -0.357 N 
ATOM      9  C7   11 d           3.118  -7.389   5.831  0.00  0.00     0.059 A 
ATOM     10  C8   11 d           3.989  -6.363   5.431  0.00  0.00     0.055 A 
ATOM     11  C9   11 d           5.005  -6.622   4.494  0.00  0.00     0.031 A 
ATOM     12  C10  11 d           5.142  -7.906   3.945  0.00  0.00     0.002 A 
ATOM     13  C11  11 d           4.277  -8.935   4.346  0.00  0.00     0.002 A 
ATOM     14  C12  11 d           3.273  -8.679   5.292  0.00  0.00     0.032 A 
ATOM     15  N2   11 d           3.903  -5.138   6.040  0.00  0.00    -0.376 N 
ATOM     16  C13  11 d           2.804  -4.262   5.812  0.00  0.00     0.144 C 
ATOM     17  C22  11 d          -2.539  -5.878   7.844  0.00  0.00     0.015 C 
ATOM     18  C23  11 d          -0.566  -4.687   8.828  0.00  0.00     0.015 C 
ATOM     19  H5   11 d           2.085  -7.758   7.550  0.00  0.00     0.166 HD
ATOM     20  H10  11 d           4.654  -4.909   6.639  0.00  0.00     0.160 HD
ENDROOT
BRANCH  16  21
ATOM     21  C14  11 d           2.935  -2.924   6.570  0.00  0.00     0.004 C 
ATOM     22  C15  11 d           3.865  -2.530   7.477  0.00  0.00     0.012 C 
BRANCH  22  23
ATOM     23  C16  11 d           3.910  -1.158   8.065  0.00  0.00    -0.003 A 
ATOM     24  C17  11 d           3.648   0.039   7.333  0.00  0.00     0.113 A 
ATOM     25  C18  11 d           3.685   1.278   8.015  0.00  0.00     0.037 A 
ATOM     26  C19  11 d           4.001   1.340   9.378  0.00  0.00     0.002 A 
ATOM     27  C20  11 d           4.290   0.169  10.083  0.00  0.00     0.001 A 
ATOM     28  C21  11 d           4.248  -1.071   9.432  0.00  0.00     0.014 A 
BRANCH  24  29
ATOM     29  N3   11 d           3.413   0.032   5.962  0.00  0.00    -0.115 N 
ATOM     30  O2   11 d           4.179  -0.470   5.275  0.00  0.00    -0.532 OA
ATOM     31  O3   11 d           2.652   0.903   5.456  0.00  0.00    -0.532 OA
ENDBRANCH  24  29
ENDBRANCH  22  23
ENDBRANCH  16  21
TORSDOF 3
