REMARK  2 active torsions:
REMARK  status: ('A' for Active; 'I' for Inactive)
REMARK    1  A    between atoms: C1_1  and  O1_13 
REMARK    2  A    between atoms: O1_13  and  C10_14 
ROOT
ATOM      1  C1   11 d          -2.050   6.379  -2.053  0.00  0.00     0.126 A 
ATOM      2  C2   11 d          -3.016   6.750  -3.015  0.00  0.00     0.103 A 
ATOM      3  C3   11 d          -4.276   7.275  -2.613  0.00  0.00     0.013 A 
ATOM      4  C4   11 d          -4.551   7.439  -1.237  0.00  0.00     0.025 A 
ATOM      5 Br1   11 d          -6.227   8.138  -0.560  0.00  0.00    -0.050 Br
ATOM      6  C5   11 d          -3.578   7.097  -0.288  0.00  0.00     0.042 A 
ATOM      7  C6   11 d          -2.335   6.580  -0.681  0.00  0.00     0.048 A 
ATOM      8 Br2   11 d          -1.049   6.256   0.724  0.00  0.00    -0.048 Br
ATOM      9  C7   11 d          -5.211   7.614  -3.614  0.00  0.00     0.017 A 
ATOM     10  C8   11 d          -4.895   7.436  -4.967  0.00  0.00     0.020 A 
ATOM     11  C9   11 d          -3.645   6.917  -5.319  0.00  0.00     0.117 A 
ATOM     12  N1   11 d          -2.748   6.590  -4.348  0.00  0.00    -0.257 NA
ENDROOT
BRANCH   1  13
ATOM     13  O1   11 d          -0.808   5.843  -2.513  0.00  0.00    -0.275 OA
BRANCH  13  14
ATOM     14  C10  11 d          -0.648   4.487  -2.114  0.00  0.00     0.260 C 
ATOM     15  O2   11 d          -1.464   3.618  -2.511  0.00  0.00    -0.265 OA
ATOM     16  C11  11 d           0.573   4.062  -1.365  0.00  0.00     0.126 C 
ENDBRANCH  13  14
ENDBRANCH   1  13
TORSDOF 2
