REMARK  3 active torsions:
REMARK  status: ('A' for Active; 'I' for Inactive)
REMARK    1  A    between atoms: C16_17  and  S1_29 
REMARK    2  A    between atoms: C20_23  and  O2_24 
REMARK    3  A    between atoms: S1_29  and  C25_30 
ROOT
ATOM      1  C25  11 d           6.284   0.415  -2.608  0.00  0.00     0.206 C 
ATOM      2  C26  11 d           7.661   0.906  -2.653  0.00  0.00     0.069 C 
ATOM      3  N3   11 d           8.766   1.299  -2.686  0.00  0.00    -0.197 NA
ENDROOT
BRANCH   1   4
ATOM      4  S1   11 d           5.322   1.194  -3.962  0.00  0.00    -0.077 SA
BRANCH   4   5
ATOM      5  C16  11 d           3.732   0.482  -3.442  0.00  0.00     0.177 C 
ATOM      6  N1   11 d           3.628  -0.866  -3.459  0.00  0.00    -0.223 NA
ATOM      7  C2   11 d           2.477  -1.522  -3.150  0.00  0.00     0.083 C 
ATOM      8  C1   11 d           1.286  -0.778  -2.913  0.00  0.00     0.049 C 
ATOM      9  C3   11 d           2.507  -2.933  -3.055  0.00  0.00    -0.000 A 
ATOM     10  C10  11 d          -0.053  -1.562  -2.769  0.00  0.00    -0.002 C 
ATOM     11  C17  11 d           1.449   0.633  -2.789  0.00  0.00     0.263 C 
ATOM     12  C9   11 d           0.245  -2.841  -1.932  0.00  0.00     0.054 C 
ATOM     13  C11  11 d          -1.243  -0.796  -2.102  0.00  0.00     0.015 C 
ATOM     14  C15  11 d          -0.515  -1.925  -4.217  0.00  0.00     0.015 C 
ATOM     15  C4   11 d           1.430  -3.619  -2.445  0.00  0.00    -0.044 A 
ATOM     16  C5   11 d           1.426  -5.028  -2.397  0.00  0.00     0.008 A 
ATOM     17  C6   11 d           2.523  -5.755  -2.876  0.00  0.00     0.001 A 
ATOM     18  C7   11 d           3.623  -5.083  -3.422  0.00  0.00     0.001 A 
ATOM     19  C8   11 d           3.618  -3.684  -3.511  0.00  0.00     0.014 A 
ATOM     20  C12  11 d          -2.591  -1.541  -2.133  0.00  0.00     0.001 C 
ATOM     21  C13  11 d          -2.978  -1.915  -3.570  0.00  0.00     0.000 C 
ATOM     22  C14  11 d          -1.860  -2.671  -4.296  0.00  0.00     0.001 C 
ATOM     23  N2   11 d           2.661   1.239  -3.050  0.00  0.00    -0.257 N 
ATOM     24  O1   11 d           0.485   1.357  -2.438  0.00  0.00    -0.267 OA
ATOM     25  C18  11 d           2.795   2.674  -2.916  0.00  0.00     0.047 A 
ATOM     26  C19  11 d           2.066   3.541  -3.752  0.00  0.00     0.066 A 
ATOM     27  C24  11 d           3.642   3.220  -1.930  0.00  0.00     0.030 A 
ATOM     28  C20  11 d           2.158   4.932  -3.589  0.00  0.00     0.070 A 
ATOM     29  C22  11 d           3.042   5.465  -2.637  0.00  0.00     0.037 A 
ATOM     30  C23  11 d           3.775   4.610  -1.800  0.00  0.00     0.005 A 
BRANCH  28  31
ATOM     31  O2   11 d           1.458   5.800  -4.469  0.00  0.00    -0.356 OA
ATOM     32  C21  11 d           0.158   6.104  -3.904  0.00  0.00     0.210 C 
ENDBRANCH  28  31
ENDBRANCH   4   5
ENDBRANCH   1   4
TORSDOF 3
