REMARK  4 active torsions:
REMARK  status: ('A' for Active; 'I' for Inactive)
REMARK    1  A    between atoms: N1_6  and  O1_7 
REMARK    2  A    between atoms: O1_7  and  C6_8 
REMARK    3  A    between atoms: C7_9  and  N2_10 
REMARK    4  A    between atoms: C9_14  and  N3_15 
ROOT
ATOM      1  C1   11 d           4.295  -7.438   2.763  0.00  0.00     0.287 A 
ATOM      2  C2   11 d           4.606  -6.314   1.816  0.00  0.00     0.063 A 
ATOM      3  C3   11 d           4.062  -5.024   2.091  0.00  0.00     0.007 A 
ATOM      4  C4   11 d           3.248  -4.787   3.232  0.00  0.00     0.046 A 
ATOM      5  C5   11 d           2.954  -5.896   4.175  0.00  0.00     0.286 A 
ATOM      6  N1   11 d           3.481  -7.189   3.912  0.00  0.00    -0.139 N 
ATOM      7  O6   11 d           2.230  -5.692   5.215  0.00  0.00    -0.265 OA
ATOM      8  C12  11 d           2.720  -3.500   3.466  0.00  0.00     0.018 A 
ATOM      9  C13  11 d           2.989  -2.449   2.584  0.00  0.00     0.002 A 
ATOM     10  C14  11 d           3.792  -2.664   1.461  0.00  0.00     0.012 A 
ATOM     11  C15  11 d           4.330  -3.939   1.207  0.00  0.00    -0.024 A 
ATOM     12  C16  11 d           5.137  -4.138   0.077  0.00  0.00     0.013 A 
ATOM     13  C17  11 d           5.678  -5.397  -0.186  0.00  0.00     0.020 A 
ATOM     14  C18  11 d           5.426  -6.483   0.665  0.00  0.00     0.023 A 
ATOM     15  I1   11 d           6.359  -8.253   0.053  0.00  0.00    -0.043 I 
ATOM     16  O7   11 d           4.750  -8.619   2.565  0.00  0.00    -0.265 OA
ENDROOT
BRANCH   6  17
ATOM     17  O1   11 d           3.179  -8.197   4.803  0.00  0.00    -0.222 OA
BRANCH  17  18
ATOM     18  C6   11 d           4.327  -8.676   5.513  0.00  0.00     0.132 A 
ATOM     19  C7   11 d           4.456 -10.067   5.758  0.00  0.00     0.141 A 
ATOM     20  C8   11 d           5.625 -10.548   6.391  0.00  0.00     0.075 A 
ATOM     21  C9   11 d           6.672  -9.679   6.780  0.00  0.00     0.105 A 
ATOM     22  C10  11 d           6.518  -8.300   6.528  0.00  0.00     0.039 A 
ATOM     23  C11  11 d           5.364  -7.806   5.908  0.00  0.00     0.044 A 
BRANCH  19  24
ATOM     24  N2   11 d           3.443 -10.955   5.397  0.00  0.00    -0.113 N 
ATOM     25  O2   11 d           2.353 -10.674   5.606  0.00  0.00    -0.532 OA
ATOM     26  O3   11 d           3.711 -12.178   5.231  0.00  0.00    -0.532 OA
ENDBRANCH  19  24
BRANCH  21  27
ATOM     27  N3   11 d           7.825 -10.162   7.405  0.00  0.00    -0.116 N 
ATOM     28  O4   11 d           7.945 -11.280   7.625  0.00  0.00    -0.532 OA
ATOM     29  O5   11 d           8.807  -9.402   7.630  0.00  0.00    -0.532 OA
ENDBRANCH  21  27
ENDBRANCH  17  18
ENDBRANCH   6  17
TORSDOF 4
