REMARK  3 active torsions:
REMARK  status: ('A' for Active; 'I' for Inactive)
REMARK    1  A    between atoms: C1_1  and  C2_2 
REMARK       I    between atoms: C1_1  and  N3_9 
REMARK    2  A    between atoms: N3_9  and  N4_10 
REMARK    3  A    between atoms: C6_11  and  C7_12 
ROOT
ATOM      1  C1   11 d           3.118  -7.155  -8.052  0.00  0.00     0.292 C 
ATOM      2  O1   11 d           1.938  -6.661  -8.147  0.00  0.00    -0.264 OA
ATOM      3  N3   11 d           3.293  -8.441  -7.461  0.00  0.00    -0.242 N 
ATOM      4  H6   11 d           4.256  -8.905  -7.354  0.00  0.00     0.192 HD
ENDROOT
BRANCH   3   5
ATOM      5  N4   11 d           2.166  -9.128  -7.004  0.00  0.00    -0.183 NA
ATOM      6  C6   11 d           2.158  -9.406  -5.725  0.00  0.00     0.150 C 
BRANCH   6   7
ATOM      7  C7   11 d           1.008 -10.111  -5.104  0.00  0.00    -0.017 A 
ATOM      8  C8   11 d          -0.141 -10.453  -5.850  0.00  0.00     0.014 A 
ATOM      9  C9   11 d          -1.219 -11.110  -5.236  0.00  0.00     0.024 A 
ATOM     10  C10  11 d          -1.161 -11.433  -3.873  0.00  0.00     0.034 A 
ATOM     11 Cl1   11 d          -2.530 -12.264  -3.095  0.00  0.00    -0.084 Cl
ATOM     12  C11  11 d          -0.023 -11.100  -3.123  0.00  0.00     0.024 A 
ATOM     13  C12  11 d           1.055 -10.441  -3.734  0.00  0.00     0.014 A 
ENDBRANCH   6   7
ENDBRANCH   3   5
BRANCH   1  14
ATOM     14  C2   11 d           4.267  -6.370  -8.564  0.00  0.00     0.148 A 
ATOM     15  C3   11 d           5.606  -6.730  -8.576  0.00  0.00     0.065 A 
ATOM     16  C4   11 d           6.287  -5.665  -9.134  0.00  0.00     0.026 A 
ATOM     17  N1   11 d           5.361  -4.756  -9.493  0.00  0.00    -0.282 N 
ATOM     18  C5   11 d           7.729  -5.645  -9.531  0.00  0.00     0.070 C 
ATOM     19  N2   11 d           4.173  -5.149  -9.140  0.00  0.00    -0.169 NA
ATOM     20  H2   11 d           5.559  -3.853  -9.993  0.00  0.00     0.189 HD
ENDBRANCH   1  14
TORSDOF 3
