REMARK  4 active torsions:
REMARK  status: ('A' for Active; 'I' for Inactive)
REMARK    1  A    between atoms: C1_1  and  C2_2 
REMARK    2  A    between atoms: C4_4  and  N1_5 
REMARK    3  A    between atoms: N2_11  and  N3_12 
REMARK       I    between atoms: N3_12  and  C8_13 
REMARK       I    between atoms: C8_13  and  N4_15 
REMARK    4  A    between atoms: N4_15  and  C9_16 
ROOT
ATOM      1  C1   11 d           6.297  -7.396  -6.920  0.00  0.00     0.061 C 
ATOM      2  N2   11 d           6.128  -7.837  -5.688  0.00  0.00    -0.175 NA
ATOM      3  C15  11 d           7.723  -7.096  -7.301  0.00  0.00     0.073 C 
ENDROOT
BRANCH   2   4
ATOM      4  N3   11 d           4.995  -8.428  -5.089  0.00  0.00    -0.228 N 
ATOM      5  C8   11 d           3.769  -8.909  -5.664  0.00  0.00     0.341 C 
ATOM      6  O3   11 d           3.553  -8.857  -6.918  0.00  0.00    -0.245 OA
ATOM      7  N4   11 d           2.793  -9.454  -4.769  0.00  0.00    -0.308 N 
ATOM      8  H6   11 d           3.056  -9.465  -3.728  0.00  0.00     0.170 HD
ATOM      9  H5   11 d           5.099  -8.526  -4.026  0.00  0.00     0.194 HD
BRANCH   7  10
ATOM     10  C9   11 d           1.460 -10.003  -5.105  0.00  0.00     0.036 A 
ATOM     11  C10  11 d           0.684 -10.495  -4.031  0.00  0.00     0.029 A 
ATOM     12  C11  11 d          -0.596 -11.026  -4.243  0.00  0.00     0.002 A 
ATOM     13  C12  11 d          -1.129 -11.072  -5.536  0.00  0.00     0.000 A 
ATOM     14  C13  11 d          -0.378 -10.591  -6.616  0.00  0.00     0.002 A 
ATOM     15  C14  11 d           0.907 -10.063  -6.407  0.00  0.00     0.029 A 
ENDBRANCH   7  10
ENDBRANCH   2   4
BRANCH   1  16
ATOM     16  C2   11 d           5.235  -6.952  -7.865  0.00  0.00    -0.008 A 
ATOM     17  C3   11 d           4.145  -6.176  -7.416  0.00  0.00     0.049 A 
ATOM     18  C4   11 d           3.149  -5.719  -8.314  0.00  0.00     0.103 A 
ATOM     19  C5   11 d           3.297  -6.026  -9.687  0.00  0.00     0.036 A 
ATOM     20  C6   11 d           4.392  -6.770 -10.144  0.00  0.00     0.003 A 
ATOM     21  C7   11 d           5.355  -7.232  -9.239  0.00  0.00     0.013 A 
BRANCH  18  22
ATOM     22  N1   11 d           2.054  -4.975  -7.866  0.00  0.00    -0.116 N 
ATOM     23  O1   11 d           1.827  -4.895  -6.746  0.00  0.00    -0.532 OA
ATOM     24  O2   11 d           1.178  -4.566  -8.677  0.00  0.00    -0.532 OA
ENDBRANCH  18  22
ENDBRANCH   1  16
TORSDOF 4
