REMARK  1 active torsions:
REMARK  status: ('A' for Active; 'I' for Inactive)
REMARK    1  A    between atoms: C5_6  and  S1_7 
ROOT
ATOM      1  C1   11 d          -2.463   2.849   0.468  0.00  0.00     0.270 A 
ATOM      2  N1   11 d          -2.665   2.955   1.803  0.00  0.00    -0.198 N 
ATOM      3  C2   11 d          -3.924   3.083   2.512  0.00  0.00     0.062 A 
ATOM      4  C3   11 d          -3.938   3.668   3.797  0.00  0.00     0.033 A 
ATOM      5  C4   11 d          -5.138   3.800   4.513  0.00  0.00     0.028 A 
ATOM      6  C5   11 d          -6.343   3.349   3.958  0.00  0.00     0.080 A 
ATOM      7  C6   11 d          -6.343   2.754   2.689  0.00  0.00     0.028 A 
ATOM      8  C7   11 d          -5.144   2.618   1.971  0.00  0.00     0.033 A 
ATOM      9  N2   11 d          -1.501   2.944   2.398  0.00  0.00    -0.169 NA
ATOM     10  C8   11 d          -0.524   2.778   1.478  0.00  0.00     0.057 A 
ATOM     11  C9   11 d          -1.113   2.761   0.227  0.00  0.00     0.104 A 
ATOM     12  C10  11 d           0.939   2.889   1.759  0.00  0.00     0.072 C 
ATOM     13  O4   11 d          -3.342   2.903  -0.428  0.00  0.00    -0.266 OA
ENDROOT
BRANCH   6  14
ATOM     14  S1   11 d          -7.897   3.514   4.870  0.00  0.00     0.137 S 
ATOM     15  O1   11 d          -8.991   4.228   4.046  0.00  0.00    -0.591 OA
ATOM     16  O2   11 d          -7.780   4.419   6.116  0.00  0.00    -0.591 OA
ATOM     17  O3   11 d          -8.616   2.074   5.417  0.00  0.00    -0.591 OA
ENDBRANCH   6  14
TORSDOF 1
