REMARK  2 active torsions:
REMARK  status: ('A' for Active; 'I' for Inactive)
REMARK    1  A    between atoms: N1_1  and  C1_2 
REMARK    2  A    between atoms: C1_2  and  C2_3 
ROOT
ATOM      1  C1   11 d           0.738  -0.088  -3.254  0.00  0.00     0.188 C 
ATOM      2  C7   11 d          -0.124  -0.625  -2.091  0.00  0.00     0.040 C 
ENDROOT
BRANCH   1   3
ATOM      3  N1   11 d           0.875   1.448  -3.233  0.00  0.00    -0.064 N 
ATOM      4  C8   11 d           1.948   2.000  -2.309  0.00  0.00     0.263 C 
ATOM      5  C9   11 d           1.492   2.439  -0.893  0.00  0.00     0.262 C 
ATOM      6  N3   11 d           0.262   3.305  -0.875  0.00  0.00    -0.072 N 
ATOM      7  C10  11 d          -0.835   2.669  -1.685  0.00  0.00     0.262 C 
ATOM      8  C12  11 d           0.540   4.723  -1.280  0.00  0.00     0.269 C 
ATOM      9  H21  11 d          -0.081   3.358   0.148  0.00  0.00     0.279 HD
ATOM     10  C11  11 d          -0.415   2.241  -3.118  0.00  0.00     0.263 C 
ATOM     11  H1   11 d           1.245   1.695  -4.213  0.00  0.00     0.280 HD
ENDBRANCH   1   3
BRANCH   1  12
ATOM     12  C2   11 d           0.310  -0.661  -4.673  0.00  0.00     0.019 C 
ATOM     13  C3   11 d          -0.474  -2.006  -4.740  0.00  0.00     0.034 C 
ATOM     14  C4   11 d           0.412  -3.262  -4.620  0.00  0.00     0.232 C 
ATOM     15  N2   11 d           1.487  -3.281  -5.659  0.00  0.00    -0.075 N 
ATOM     16  C5   11 d           2.323  -2.042  -5.590  0.00  0.00     0.232 C 
ATOM     17  H8   11 d           2.110  -4.145  -5.512  0.00  0.00     0.277 HD
ATOM     18  H9   11 d           1.051  -3.379  -6.638  0.00  0.00     0.277 HD
ATOM     19  C6   11 d           1.481  -0.750  -5.696  0.00  0.00     0.034 C 
ENDBRANCH   1  12
TORSDOF 2
