REMARK  5 active torsions:
REMARK  status: ('A' for Active; 'I' for Inactive)
REMARK    1  A    between atoms: N3_14  and  N4_15 
REMARK    2  A    between atoms: N4_15  and  C10_16 
REMARK    3  A    between atoms: C13_19  and  C16_22 
REMARK    4  A    between atoms: C16_22  and  S2_23 
REMARK    5  A    between atoms: S2_23  and  N5_26 
ROOT
ATOM      1  C1   11 d           4.270  -8.445  -5.557  0.00  0.00     0.158 A 
ATOM      2  C2   11 d           5.550  -8.511  -6.270  0.00  0.00     0.046 A 
ATOM      3  C3   11 d           6.614  -9.419  -6.231  0.00  0.00     0.050 A 
ATOM      4  C4   11 d           7.738  -9.235  -7.023  0.00  0.00     0.075 A 
ATOM      5  N1   11 d           8.646 -10.226  -6.823  0.00  0.00    -0.253 NA
ATOM      6  C5   11 d           8.165 -11.100  -5.898  0.00  0.00     0.167 A 
ATOM      7  S1   11 d           6.805 -10.661  -5.427  0.00  0.00    -0.080 SA
ATOM      8  C6   11 d           7.841  -8.133  -7.891  0.00  0.00     0.035 A 
ATOM      9  C7   11 d           6.776  -7.201  -7.940  0.00  0.00     0.033 A 
ATOM     10  C8   11 d           5.647  -7.406  -7.119  0.00  0.00     0.049 A 
ATOM     11  N2   11 d           4.471  -6.569  -7.001  0.00  0.00    -0.321 N 
ATOM     12  C9   11 d           3.633  -7.192  -6.051  0.00  0.00     0.277 A 
ATOM     13  O1   11 d           2.501  -6.719  -5.697  0.00  0.00    -0.266 OA
ATOM     14  N3   11 d           3.843  -9.343  -4.696  0.00  0.00    -0.168 NA
ATOM     15  H4   11 d           4.283  -5.656  -7.533  0.00  0.00     0.169 HD
ENDROOT
BRANCH  14  16
ATOM     16  N4   11 d           2.682  -9.105  -4.113  0.00  0.00    -0.278 N 
ATOM     17  H5   11 d           2.653  -8.432  -3.378  0.00  0.00     0.189 HD
BRANCH  16  18
ATOM     18  C10  11 d           1.518  -9.759  -4.494  0.00  0.00     0.050 A 
ATOM     19  C11  11 d           0.369  -9.633  -3.686  0.00  0.00     0.031 A 
ATOM     20  C12  11 d          -0.838 -10.248  -4.056  0.00  0.00     0.010 A 
ATOM     21  C13  11 d          -0.926 -10.983  -5.252  0.00  0.00    -0.043 A 
ATOM     22  C14  11 d           0.231 -11.148  -6.038  0.00  0.00     0.010 A 
ATOM     23  C15  11 d           1.438 -10.536  -5.668  0.00  0.00     0.031 A 
BRANCH  21  24
ATOM     24  C16  11 d          -2.199 -11.705  -5.604  0.00  0.00     0.195 C 
BRANCH  24  25
ATOM     25  S2   11 d          -3.189 -10.726  -6.781  0.00  0.00     0.213 S 
ATOM     26  O2   11 d          -2.653 -10.934  -8.200  0.00  0.00    -0.211 OA
ATOM     27  O3   11 d          -3.043  -9.233  -6.474  0.00  0.00    -0.211 OA
BRANCH  25  28
ATOM     28  N5   11 d          -4.904 -11.121  -6.758  0.00  0.00    -0.224 NA
ATOM     29  C17  11 d          -5.124 -12.572  -6.940  0.00  0.00     0.125 C 
ATOM     30  H12  11 d          -5.278 -10.832  -5.798  0.00  0.00     0.139 HD
ENDBRANCH  25  28
ENDBRANCH  24  25
ENDBRANCH  21  24
ENDBRANCH  16  18
ENDBRANCH  14  16
TORSDOF 5
