REMARK  0 active torsions:
REMARK  status: ('A' for Active; 'I' for Inactive)
ROOT
ATOM      1  C1   11 d          -0.515   1.793  -0.761  0.00  0.00     0.299 A 
ATOM      2  C2   11 d          -1.742   1.713  -0.053  0.00  0.00     0.051 A 
ATOM      3  C3   11 d          -2.829   2.726  -0.207  0.00  0.00    -0.020 A 
ATOM      4  C4   11 d          -3.537   3.192   0.924  0.00  0.00     0.014 A 
ATOM      5  C5   11 d          -4.562   4.141   0.785  0.00  0.00     0.024 A 
ATOM      6  C6   11 d          -4.894   4.638  -0.483  0.00  0.00     0.034 A 
ATOM      7 Cl1   11 d          -6.193   5.842  -0.655  0.00  0.00    -0.084 Cl
ATOM      8  C7   11 d          -4.202   4.183  -1.614  0.00  0.00     0.024 A 
ATOM      9  C8   11 d          -3.179   3.232  -1.479  0.00  0.00     0.014 A 
ATOM     10  C9   11 d          -1.914   0.625   0.829  0.00  0.00     0.032 A 
ATOM     11  C10  11 d          -0.898  -0.330   0.981  0.00  0.00    -0.000 A 
ATOM     12  C11  11 d           0.295  -0.163   0.217  0.00  0.00     0.092 A 
ATOM     13  O1   11 d           0.417   0.870  -0.596  0.00  0.00    -0.274 OA
ATOM     14  C12  11 d           1.348  -1.094   0.327  0.00  0.00     0.076 A 
ATOM     15  C13  11 d           1.184  -2.169   1.205  0.00  0.00     0.088 A 
ATOM     16  C14  11 d           0.034  -2.326   1.952  0.00  0.00     0.006 A 
ATOM     17  C15  11 d           0.229  -3.467   2.708  0.00  0.00    -0.027 A 
ATOM     18  C16  11 d           1.477  -3.936   2.299  0.00  0.00     0.150 A 
ATOM     19  O2   11 d           2.039  -3.135   1.420  0.00  0.00    -0.321 OA
ATOM     20  C17  11 d          -0.767  -4.190   3.563  0.00  0.00     0.051 C 
ATOM     21  C18  11 d          -1.038  -1.429   1.860  0.00  0.00     0.029 A 
ATOM     22  O3   11 d          -0.279   2.759  -1.529  0.00  0.00    -0.259 OA
ENDROOT
TORSDOF 0
