REMARK  2 active torsions:
REMARK  status: ('A' for Active; 'I' for Inactive)
REMARK    1  A    between atoms: C1_1  and  C2_2 
REMARK       I    between atoms: C1_1  and  N1_10 
REMARK    2  A    between atoms: C3_3  and  O1_4 
ROOT
ATOM      1  C1   11 d           2.785 -10.164  -4.567  0.00  0.00     0.256 C 
ATOM      2  N1   11 d           3.478  -9.174  -5.319  0.00  0.00    -0.345 N 
ATOM      3  C9   11 d           4.098  -8.013  -4.613  0.00  0.00     0.153 C 
ATOM      4  C10  11 d           3.958  -6.729  -5.434  0.00  0.00     0.252 C 
ATOM      5  N2   11 d           4.327  -6.950  -6.864  0.00  0.00    -0.072 N 
ATOM      6  C11  11 d           3.461  -7.982  -7.508  0.00  0.00     0.252 C 
ATOM      7  C12  11 d           3.586  -9.335  -6.801  0.00  0.00     0.153 C 
ATOM      8  O2   11 d           3.494 -10.986  -3.891  0.00  0.00    -0.267 OA
ATOM      9  H12  11 d           4.225  -6.025  -7.399  0.00  0.00     0.277 HD
ATOM     10  H13  11 d           5.357  -7.246  -6.932  0.00  0.00     0.277 HD
ENDROOT
BRANCH   1  11
ATOM     11  C2   11 d           1.291 -10.240  -4.557  0.00  0.00     0.065 A 
ATOM     12  C3   11 d           0.601 -11.409  -4.144  0.00  0.00     0.084 A 
ATOM     13  C5   11 d          -0.802 -11.461  -4.225  0.00  0.00     0.038 A 
ATOM     14  C6   11 d          -1.533 -10.345  -4.649  0.00  0.00     0.003 A 
ATOM     15  C7   11 d          -0.864  -9.174  -5.023  0.00  0.00     0.001 A 
ATOM     16  C8   11 d           0.537  -9.123  -4.983  0.00  0.00     0.020 A 
BRANCH  12  17
ATOM     17  O1   11 d           1.298 -12.602  -3.811  0.00  0.00    -0.355 OA
ATOM     18  C4   11 d           1.385 -12.740  -2.369  0.00  0.00     0.210 C 
ENDBRANCH  12  17
ENDBRANCH   1  11
TORSDOF 2
