REMARK  1 active torsions:
REMARK  status: ('A' for Active; 'I' for Inactive)
REMARK    1  A    between atoms: N2_6  and  C5_7 
ROOT
ATOM      1  C1   11 d           3.178  -1.833  -1.339  0.00  0.00     0.283 A 
ATOM      2  C2   11 d           3.335  -1.851  -2.723  0.00  0.00     0.166 A 
ATOM      3  C3   11 d           4.224  -1.000  -3.337  0.00  0.00     0.185 A 
ATOM      4  N1   11 d           4.975  -0.117  -2.623  0.00  0.00    -0.285 N 
ATOM      5  C4   11 d           4.829  -0.092  -1.248  0.00  0.00     0.333 A 
ATOM      6  N2   11 d           3.938  -0.941  -0.591  0.00  0.00    -0.264 N 
ATOM      7  O1   11 d           5.519   0.719  -0.576  0.00  0.00    -0.246 OA
ATOM      8  C7   11 d           5.912   0.762  -3.347  0.00  0.00     0.163 C 
ATOM      9  N3   11 d           4.192  -1.210  -4.679  0.00  0.00    -0.043 NA
ATOM     10  C8   11 d           3.277  -2.193  -4.851  0.00  0.00     0.712 A 
ATOM     11  N4   11 d           2.736  -2.898  -5.893  0.00  0.00    -0.180 N 
ATOM     12  C9   11 d           3.039  -2.764  -7.262  0.00  0.00     0.051 A 
ATOM     13  C10  11 d           2.385  -3.578  -8.223  0.00  0.00     0.030 A 
ATOM     14  C11  11 d           2.670  -3.463  -9.592  0.00  0.00     0.002 A 
ATOM     15  C12  11 d           3.615  -2.534 -10.037  0.00  0.00     0.000 A 
ATOM     16  C13  11 d           4.275  -1.718  -9.113  0.00  0.00     0.002 A 
ATOM     17  C14  11 d           3.993  -1.830  -7.743  0.00  0.00     0.030 A 
ATOM     18  C15  11 d           1.787  -3.818  -5.346  0.00  0.00     0.168 A 
ATOM     19  C16  11 d           1.785  -3.619  -3.806  0.00  0.00     0.169 A 
ATOM     20  N5   11 d           2.769  -2.574  -3.700  0.00  0.00    -0.170 N 
ATOM     21  O2   11 d           2.357  -2.626  -0.812  0.00  0.00    -0.265 OA
ENDROOT
BRANCH   6  22
ATOM     22  C5   11 d           3.868  -0.821   0.897  0.00  0.00     0.133 C 
ATOM     23  C6   11 d           2.905  -1.695   1.703  0.00  0.00     0.027 C 
ENDBRANCH   6  22
TORSDOF 1
