REMARK  4 active torsions:
REMARK  status: ('A' for Active; 'I' for Inactive)
REMARK    1  A    between atoms: C1_1  and  C9_12 
REMARK    2  A    between atoms: N1_2  and  N2_3 
REMARK       I    between atoms: N2_3  and  C2_4 
REMARK    3  A    between atoms: C2_4  and  C3_6 
REMARK    4  A    between atoms: C10_13  and  C11_14 
ROOT
ATOM      1  C1   11 d           3.013  -8.443  -7.010  0.00  0.00     0.051 C 
ATOM      2  N1   11 d           2.176  -8.504  -8.025  0.00  0.00    -0.177 NA
ATOM      3  C17  11 d           4.474  -8.383  -7.348  0.00  0.00     0.072 C 
ENDROOT
BRANCH   2   4
ATOM      4  N2   11 d           0.801  -8.474  -7.783  0.00  0.00    -0.246 N 
ATOM      5  C2   11 d           0.001  -9.556  -8.242  0.00  0.00     0.242 C 
ATOM      6  O1   11 d           0.539 -10.540  -8.867  0.00  0.00    -0.271 OA
ATOM      7  H1   11 d           0.379  -7.635  -7.261  0.00  0.00     0.192 HD
BRANCH   5   8
ATOM      8  C3   11 d          -1.484  -9.551  -7.993  0.00  0.00     0.089 A 
ATOM      9  C4   11 d          -2.230  -9.876  -9.285  0.00  0.00    -0.027 A 
ATOM     10  C5   11 d          -2.405  -8.508  -8.603  0.00  0.00     0.025 A 
ATOM     11  C6   11 d          -3.588 -10.501  -9.521  0.00  0.00     0.010 A 
ATOM     12  C8   11 d          -1.957  -9.634 -10.759  0.00  0.00     0.010 A 
ATOM     13  C7   11 d          -3.371 -10.185 -11.011  0.00  0.00     0.002 A 
ENDBRANCH   5   8
ENDBRANCH   2   4
BRANCH   1  14
ATOM     14  C9   11 d           2.632  -8.237  -5.579  0.00  0.00     0.029 C 
ATOM     15  C10  11 d           1.768  -8.935  -4.809  0.00  0.00     0.013 C 
BRANCH  15  16
ATOM     16  C11  11 d           1.056 -10.197  -5.141  0.00  0.00    -0.036 A 
ATOM     17  C12  11 d           1.601 -11.186  -5.988  0.00  0.00     0.011 A 
ATOM     18  C13  11 d           0.892 -12.370  -6.244  0.00  0.00     0.001 A 
ATOM     19  C14  11 d          -0.359 -12.585  -5.649  0.00  0.00     0.000 A 
ATOM     20  C15  11 d          -0.899 -11.620  -4.788  0.00  0.00     0.001 A 
ATOM     21  C16  11 d          -0.193 -10.436  -4.531  0.00  0.00     0.011 A 
ENDBRANCH  15  16
ENDBRANCH   1  14
TORSDOF 4
