REMARK  3 active torsions:
REMARK  status: ('A' for Active; 'I' for Inactive)
REMARK    1  A    between atoms: C2_2  and  C3_3 
REMARK    2  A    between atoms: C11_12  and  O1_15 
REMARK    3  A    between atoms: C16_19  and  C17_20 
ROOT
ATOM      1  C1   11 d           1.486  -3.072   2.266  0.00  0.00     0.151 C 
ATOM      2  C2   11 d           2.228  -2.522   1.042  0.00  0.00     0.072 C 
ATOM      3  C6   11 d           1.898  -1.004   0.973  0.00  0.00     0.257 C 
ATOM      4  N1   11 d           2.265  -0.290   2.257  0.00  0.00    -0.035 N 
ATOM      5  C7   11 d           3.743  -0.453   2.600  0.00  0.00     0.420 C 
ATOM      6  C8   11 d           4.741   0.310   1.706  0.00  0.00    -0.000 A 
ATOM      7  C9   11 d           6.133   0.093   1.873  0.00  0.00     0.014 A 
ATOM      8  C10  11 d           7.071   0.708   1.030  0.00  0.00     0.037 A 
ATOM      9  C11  11 d           6.648   1.585   0.027  0.00  0.00     0.065 A 
ATOM     10  C12  11 d           5.283   1.830  -0.149  0.00  0.00     0.037 A 
ATOM     11  C13  11 d           4.340   1.216   0.689  0.00  0.00     0.014 A 
ATOM     12  N2   11 d           4.034  -1.947   2.728  0.00  0.00    -0.035 N 
ATOM     13  C14  11 d           3.729  -2.661   1.435  0.00  0.00     0.257 C 
ATOM     14  C15  11 d           3.220  -2.530   3.858  0.00  0.00     0.257 C 
ATOM     15  C16  11 d           1.691  -2.362   3.611  0.00  0.00     0.072 C 
ATOM     16  C20  11 d           1.416  -0.846   3.377  0.00  0.00     0.257 C 
ATOM     17  O2   11 d           0.751  -4.084   2.175  0.00  0.00    -0.296 OA
ATOM     18  H10  11 d           2.009   0.753   2.170  0.00  0.00     0.282 HD
ATOM     19  H17  11 d           5.065  -2.135   2.972  0.00  0.00     0.282 HD
ENDROOT
BRANCH   2  20
ATOM     20  C3   11 d           1.886  -3.292  -0.291  0.00  0.00    -0.004 C 
ATOM     21  C4   11 d           2.836  -3.021  -1.476  0.00  0.00     0.011 C 
ATOM     22  C5   11 d           0.435  -3.090  -0.777  0.00  0.00     0.011 C 
ENDBRANCH   2  20
BRANCH  15  23
ATOM     23  C17  11 d           0.822  -2.975   4.774  0.00  0.00    -0.004 C 
ATOM     24  C18  11 d          -0.698  -2.755   4.605  0.00  0.00     0.011 C 
ATOM     25  C19  11 d           1.217  -2.538   6.200  0.00  0.00     0.011 C 
ENDBRANCH  15  23
BRANCH   9  26
ATOM     26  O1   11 d           7.579   2.100  -0.896  0.00  0.00    -0.361 OA
ATOM     27  H16  11 d           7.902   3.008  -0.511  0.00  0.00     0.217 HD
ENDBRANCH   9  26
TORSDOF 3
