REMARK  7 active torsions:
REMARK  status: ('A' for Active; 'I' for Inactive)
REMARK    1  A    between atoms: C10_13  and  C11_14 
REMARK    2  A    between atoms: C13_16  and  O3_32 
REMARK    3  A    between atoms: C14_17  and  O1_18 
REMARK    4  A    between atoms: O1_18  and  C15_19 
REMARK    5  A    between atoms: C15_19  and  C16_20 
REMARK    6  A    between atoms: C16_20  and  O2_21 
REMARK    7  A    between atoms: O2_21  and  C17_22 
ROOT
ATOM      1  C11  11 d           0.376  -3.638  -1.234  0.00  0.00    -0.032 A 
ATOM      2  C12  11 d           0.826  -2.315  -1.048  0.00  0.00     0.051 A 
ATOM      3  C13  11 d           0.858  -1.734   0.232  0.00  0.00     0.102 A 
ATOM      4  C14  11 d           0.351  -2.456   1.340  0.00  0.00     0.102 A 
ATOM      5  C25  11 d          -0.172  -3.746   1.139  0.00  0.00     0.040 A 
ATOM      6  C26  11 d          -0.143  -4.338  -0.130  0.00  0.00     0.014 A 
ENDROOT
BRANCH   1   7
ATOM      7  C10  11 d           0.329  -4.295  -2.567  0.00  0.00     0.036 C 
ATOM      8  C2   11 d           1.248  -4.235  -3.559  0.00  0.00     0.077 A 
ATOM      9  C1   11 d           2.590  -3.599  -3.583  0.00  0.00     0.271 A 
ATOM     10  S1   11 d           0.865  -5.035  -5.145  0.00  0.00    -0.054 SA
ATOM     11  N1   11 d           3.242  -3.698  -4.830  0.00  0.00    -0.262 N 
ATOM     12  O4   11 d           3.133  -3.015  -2.580  0.00  0.00    -0.266 OA
ATOM     13  C3   11 d           2.434  -4.433  -5.796  0.00  0.00     0.153 A 
ATOM     14  C4   11 d           4.566  -3.120  -5.086  0.00  0.00     0.044 A 
ATOM     15  S2   11 d           2.831  -4.704  -7.165  0.00  0.00    -0.052 SA
ATOM     16  C5   11 d           5.687  -3.555  -4.354  0.00  0.00     0.030 A 
ATOM     17  C9   11 d           4.723  -2.123  -6.066  0.00  0.00     0.030 A 
ATOM     18  C6   11 d           6.952  -3.000  -4.605  0.00  0.00     0.002 A 
ATOM     19  C7   11 d           7.102  -2.009  -5.587  0.00  0.00     0.000 A 
ATOM     20  C8   11 d           5.988  -1.571  -6.318  0.00  0.00     0.002 A 
ENDBRANCH   1   7
BRANCH   3  21
ATOM     21  O3   11 d           1.252  -0.370   0.352  0.00  0.00    -0.353 OA
ATOM     22  C27  11 d           2.688  -0.292   0.530  0.00  0.00     0.210 C 
ENDBRANCH   3  21
BRANCH   4  23
ATOM     23  O1   11 d           0.255  -1.853   2.630  0.00  0.00    -0.346 OA
BRANCH  23  24
ATOM     24  C15  11 d           1.204  -2.460   3.549  0.00  0.00     0.202 C 
BRANCH  24  25
ATOM     25  C16  11 d           1.242  -1.664   4.846  0.00  0.00     0.202 C 
BRANCH  25  26
ATOM     26  O2   11 d           1.906  -2.461   5.867  0.00  0.00    -0.348 OA
BRANCH  26  27
ATOM     27  C17  11 d           1.797  -1.815   7.133  0.00  0.00     0.080 A 
ATOM     28  C18  11 d           0.769  -2.190   8.035  0.00  0.00    -0.028 A 
ATOM     29  C19  11 d           0.686  -1.553   9.288  0.00  0.00     0.009 A 
ATOM     30  C24  11 d          -0.324  -3.152   7.638  0.00  0.00     0.051 C 
ATOM     31  C20  11 d           1.669  -0.640   9.688  0.00  0.00     0.001 A 
ATOM     32  C21  11 d           2.735  -0.339   8.833  0.00  0.00     0.009 A 
ATOM     33  C22  11 d           2.801  -0.903   7.545  0.00  0.00    -0.028 A 
ATOM     34  C23  11 d           4.023  -0.656   6.699  0.00  0.00     0.051 C 
ENDBRANCH  26  27
ENDBRANCH  25  26
ENDBRANCH  24  25
ENDBRANCH  23  24
ENDBRANCH   4  23
TORSDOF 7
