REMARK  4 active torsions:
REMARK  status: ('A' for Active; 'I' for Inactive)
REMARK    1  A    between atoms: C8_10  and  N1_11 
REMARK    2  A    between atoms: N1_11  and  C9_12 
REMARK    3  A    between atoms: N1_11  and  C11_14 
REMARK    4  A    between atoms: C19_24  and  O3_25 
ROOT
ATOM      1  C1   11 d           3.750   2.064  -2.182  0.00  0.00     0.095 A 
ATOM      2  C2   11 d           2.370   1.921  -2.452  0.00  0.00     0.303 A 
ATOM      3  O1   11 d           1.525   1.946  -1.523  0.00  0.00    -0.259 OA
ATOM      4  O2   11 d           1.945   1.780  -3.696  0.00  0.00    -0.274 OA
ATOM      5  C3   11 d           2.745   1.752  -4.748  0.00  0.00     0.091 A 
ATOM      6  C4   11 d           4.145   1.856  -4.577  0.00  0.00    -0.001 A 
ATOM      7  C5   11 d           4.642   2.015  -3.273  0.00  0.00     0.036 A 
ATOM      8  C6   11 d           4.992   1.813  -5.701  0.00  0.00     0.016 A 
ATOM      9  C7   11 d           4.441   1.691  -6.987  0.00  0.00     0.030 A 
ATOM     10  C8   11 d           3.046   1.619  -7.160  0.00  0.00     0.032 A 
ATOM     11  C13  11 d           2.203   1.637  -6.035  0.00  0.00     0.067 A 
ATOM     12  C14  11 d           4.269   2.296  -0.812  0.00  0.00     0.209 A 
ATOM     13  N2   11 d           3.541   2.300   0.324  0.00  0.00    -0.121 NA
ATOM     14  N3   11 d           4.353   2.604   1.290  0.00  0.00    -0.121 NA
ATOM     15  C15  11 d           5.568   2.783   0.731  0.00  0.00     0.203 A 
ATOM     16  C16  11 d           6.793   3.200   1.452  0.00  0.00     0.019 A 
ATOM     17  C17  11 d           6.747   3.500   2.831  0.00  0.00     0.018 A 
ATOM     18  C18  11 d           7.901   3.935   3.501  0.00  0.00     0.037 A 
ATOM     19  C19  11 d           9.106   4.100   2.800  0.00  0.00     0.068 A 
ATOM     20  C21  11 d           9.171   3.753   1.441  0.00  0.00     0.037 A 
ATOM     21  C22  11 d           8.019   3.321   0.766  0.00  0.00     0.018 A 
ATOM     22  O4   11 d           5.521   2.584  -0.561  0.00  0.00    -0.268 OA
ENDROOT
BRANCH  10  23
ATOM     23  N1   11 d           2.489   1.539  -8.426  0.00  0.00    -0.382 N 
BRANCH  23  24
ATOM     24  C9   11 d           2.073   2.738  -9.075  0.00  0.00     0.118 C 
ATOM     25  C10  11 d           3.252   3.568  -9.586  0.00  0.00     0.026 C 
ENDBRANCH  23  24
BRANCH  23  26
ATOM     26  C11  11 d           2.317   0.266  -9.037  0.00  0.00     0.118 C 
ATOM     27  C12  11 d           3.297   0.034 -10.185  0.00  0.00     0.026 C 
ENDBRANCH  23  26
ENDBRANCH  10  23
BRANCH  19  28
ATOM     28  O3   11 d          10.284   4.483   3.494  0.00  0.00    -0.356 OA
ATOM     29  C20  11 d          10.426   5.925   3.439  0.00  0.00     0.210 C 
ENDBRANCH  19  28
TORSDOF 4
