REMARK  4 active torsions:
REMARK  status: ('A' for Active; 'I' for Inactive)
REMARK    1  A    between atoms: C1_1  and  C2_2 
REMARK       I    between atoms: C1_1  and  N1_10 
REMARK    2  A    between atoms: N1_10  and  N2_11 
REMARK    3  A    between atoms: N2_11  and  C9_12 
REMARK    4  A    between atoms: C9_12  and  C10_13 
ROOT
ATOM      1  N2   11 d           2.778   4.079  -4.668  0.00  0.00    -0.332 NA
ENDROOT
BRANCH   1   2
ATOM      2  N1   11 d           2.088   3.472  -3.660  0.00  0.00    -0.199 N 
ATOM      3  C1   11 d           2.765   2.858  -2.641  0.00  0.00     0.280 C 
ATOM      4  O1   11 d           3.987   2.854  -2.634  0.00  0.00    -0.265 OA
ATOM      5  H8   11 d           1.005   3.476  -3.666  0.00  0.00     0.205 HD
BRANCH   3   6
ATOM      6  C2   11 d           2.029   2.210  -1.563  0.00  0.00     0.035 A 
ATOM      7  C3   11 d           2.717   1.578  -0.514  0.00  0.00     0.024 A 
ATOM      8  C4   11 d           2.009   0.944   0.514  0.00  0.00    -0.061 A 
ATOM      9  C5   11 d           0.612   0.940   0.506  0.00  0.00     0.007 A 
ATOM     10  C8   11 d           2.744   0.278   1.607  0.00  0.00     0.048 C 
ATOM     11  C6   11 d          -0.074   1.575  -0.536  0.00  0.00     0.002 A 
ATOM     12  C7   11 d           0.624   2.210  -1.564  0.00  0.00     0.017 A 
ENDBRANCH   3   6
ENDBRANCH   1   2
BRANCH   1  13
ATOM     13  C9   11 d           3.467   4.686  -5.677  0.00  0.00     0.259 C 
BRANCH  13  14
ATOM     14  C10  11 d           2.954   4.628  -7.062  0.00  0.00     0.160 A 
ATOM     15  N3   11 d           3.475   5.150  -8.161  0.00  0.00    -0.337 N 
ATOM     16  C11  11 d           2.621   4.818  -9.185  0.00  0.00     0.062 A 
ATOM     17  H10  11 d           4.390   5.723  -8.238  0.00  0.00     0.167 HD
ATOM     18  C12  11 d           1.548   4.075  -8.712  0.00  0.00     0.086 A 
ATOM     19  C16  11 d           2.699   5.117 -10.552  0.00  0.00     0.032 A 
ATOM     20  C13  11 d           0.521   3.600  -9.531  0.00  0.00     0.034 A 
ATOM     21  N4   11 d           1.781   3.969  -7.367  0.00  0.00    -0.227 NA
ATOM     22  C14  11 d           0.614   3.909 -10.893  0.00  0.00     0.002 A 
ATOM     23  C15  11 d           1.683   4.654 -11.399  0.00  0.00     0.002 A 
ENDBRANCH  13  14
ENDBRANCH   1  13
TORSDOF 4
