REMARK  7 active torsions:
REMARK  status: ('A' for Active; 'I' for Inactive)
REMARK    1  A    between atoms: C1_1  and  C2_2 
REMARK    2  A    between atoms: C1_1  and  O4_14 
REMARK    3  A    between atoms: C2_2  and  N1_3 
REMARK    4  A    between atoms: N1_3  and  N2_4 
REMARK       I    between atoms: N2_4  and  C3_5 
REMARK    5  A    between atoms: C3_5  and  C4_6 
REMARK    6  A    between atoms: O4_14  and  C9_15 
REMARK    7  A    between atoms: C9_15  and  C10_16 
ROOT
ATOM      1  N1   11 d          -1.444  -0.375  -3.163  0.00  0.00    -0.321 NA
ENDROOT
BRANCH   1   2
ATOM      2  C2   11 d          -2.611   0.121  -2.708  0.00  0.00     0.179 C 
ATOM      3  C8   11 d          -3.846   0.002  -3.537  0.00  0.00     0.094 C 
BRANCH   2   4
ATOM      4  C1   11 d          -2.669   0.788  -1.378  0.00  0.00     0.321 C 
ATOM      5  O3   11 d          -3.727   1.238  -0.965  0.00  0.00    -0.257 OA
BRANCH   4   6
ATOM      6  O4   11 d          -1.547   0.896  -0.625  0.00  0.00    -0.316 OA
BRANCH   6   7
ATOM      7  C9   11 d          -1.959   1.570   0.552  0.00  0.00     0.178 C 
BRANCH   7   8
ATOM      8  C10  11 d          -0.767   1.746   1.479  0.00  0.00     0.022 C 
ATOM      9  C11  11 d          -1.207   2.466   2.735  0.00  0.00     0.007 C 
ENDBRANCH   7   8
ENDBRANCH   6   7
ENDBRANCH   4   6
ENDBRANCH   2   4
ENDBRANCH   1   2
BRANCH   1  10
ATOM     10  N2   11 d          -0.277  -0.871  -3.618  0.00  0.00    -0.197 N 
ATOM     11  C3   11 d           0.768  -0.027  -3.883  0.00  0.00     0.304 C 
ATOM     12  O2   11 d           0.643   1.175  -3.707  0.00  0.00    -0.263 OA
ATOM     13  H1   11 d          -0.166  -1.936  -3.774  0.00  0.00     0.205 HD
BRANCH  11  14
ATOM     14  C4   11 d           2.049  -0.572  -4.382  0.00  0.00     0.144 A 
ATOM     15  O1   11 d           3.208   0.083  -4.707  0.00  0.00    -0.317 OA
ATOM     16  C5   11 d           4.106  -0.854  -5.105  0.00  0.00     0.143 A 
ATOM     17  C6   11 d           3.550  -2.109  -5.048  0.00  0.00     0.027 A 
ATOM     18  C7   11 d           2.222  -1.929  -4.591  0.00  0.00     0.045 A 
ENDBRANCH  11  14
ENDBRANCH   1  10
TORSDOF 7
