REMARK  7 active torsions:
REMARK  status: ('A' for Active; 'I' for Inactive)
REMARK    1  A    between atoms: C1_1  and  C2_3 
REMARK       I    between atoms: C1_1  and  N1_15 
REMARK    2  A    between atoms: C2_3  and  C3_4 
REMARK    3  A    between atoms: C6_7  and  C9_10 
REMARK    4  A    between atoms: C9_10  and  C10_11 
REMARK    5  A    between atoms: N1_15  and  N2_16 
REMARK    6  A    between atoms: C14_17  and  C15_18 
REMARK    7  A    between atoms: C16_19  and  O2_24 
ROOT
ATOM      1  C1   11 d           3.223  -9.498  -5.685  0.00  0.00     0.245 C 
ATOM      2  O1   11 d           2.312  -8.926  -6.384  0.00  0.00    -0.271 OA
ATOM      3  N1   11 d           4.290 -10.178  -6.341  0.00  0.00    -0.247 N 
ATOM      4  H18  11 d           5.074 -10.668  -5.794  0.00  0.00     0.192 HD
ENDROOT
BRANCH   1   5
ATOM      5  C2   11 d           3.175  -9.457  -4.164  0.00  0.00     0.108 C 
ATOM      6  C13  11 d           4.454  -8.832  -3.581  0.00  0.00     0.025 C 
BRANCH   5   7
ATOM      7  C3   11 d           1.961  -8.726  -3.603  0.00  0.00    -0.045 A 
ATOM      8  C4   11 d           1.019  -9.416  -2.814  0.00  0.00     0.008 A 
ATOM      9  C5   11 d          -0.077  -8.743  -2.255  0.00  0.00     0.007 A 
ATOM     10  C6   11 d          -0.247  -7.357  -2.449  0.00  0.00    -0.058 A 
ATOM     11  C7   11 d           0.675  -6.673  -3.268  0.00  0.00     0.007 A 
ATOM     12  C8   11 d           1.761  -7.349  -3.842  0.00  0.00     0.008 A 
BRANCH  10  13
ATOM     13  C9   11 d          -1.446  -6.654  -1.839  0.00  0.00     0.042 C 
BRANCH  13  14
ATOM     14  C10  11 d          -2.232  -5.697  -2.767  0.00  0.00    -0.019 C 
ATOM     15  C11  11 d          -3.384  -5.035  -1.997  0.00  0.00     0.010 C 
ATOM     16  C12  11 d          -2.766  -6.402  -4.022  0.00  0.00     0.010 C 
ENDBRANCH  13  14
ENDBRANCH  10  13
ENDBRANCH   5   7
ENDBRANCH   1   5
BRANCH   3  17
ATOM     17  N2   11 d           4.330 -10.224  -7.737  0.00  0.00    -0.184 NA
ATOM     18  C14  11 d           5.370  -9.643  -8.279  0.00  0.00     0.152 C 
BRANCH  18  19
ATOM     19  C15  11 d           5.602  -9.658  -9.748  0.00  0.00     0.016 A 
ATOM     20  C16  11 d           5.022 -10.619 -10.616  0.00  0.00     0.077 A 
ATOM     21  C17  11 d           5.275 -10.561 -11.995  0.00  0.00     0.037 A 
ATOM     22  C18  11 d           6.124  -9.578 -12.522  0.00  0.00     0.003 A 
ATOM     23  C19  11 d           6.719  -8.639 -11.670  0.00  0.00     0.001 A 
ATOM     24  C20  11 d           6.463  -8.680 -10.291  0.00  0.00     0.016 A 
BRANCH  20  25
ATOM     25  O2   11 d           4.136 -11.619 -10.148  0.00  0.00    -0.360 OA
ATOM     26  H24  11 d           4.736 -12.327  -9.690  0.00  0.00     0.217 HD
ENDBRANCH  20  25
ENDBRANCH  18  19
ENDBRANCH   3  17
TORSDOF 7
