REMARK  2 active torsions:
REMARK  status: ('A' for Active; 'I' for Inactive)
REMARK    1  A    between atoms: C1_1  and  C2_2 
REMARK    2  A    between atoms: C1_1  and  O3_31 
ROOT
ATOM      1  C2   11 d           1.495  -9.569  -4.861  0.00  0.00     0.039 A 
ATOM      2  C3   11 d           0.604  -9.158  -5.872  0.00  0.00     0.018 A 
ATOM      3  C4   11 d          -0.713  -9.639  -5.901  0.00  0.00     0.010 A 
ATOM      4  C5   11 d          -1.184 -10.543  -4.922  0.00  0.00    -0.031 A 
ATOM      5  C6   11 d          -2.652 -10.994  -4.991  0.00  0.00     0.154 C 
ATOM      6  C7   11 d          -3.158 -11.805  -3.763  0.00  0.00     0.037 C 
ATOM      7  C8   11 d          -3.077 -11.122  -2.413  0.00  0.00     0.160 C 
ATOM      8  O1   11 d          -2.615  -9.956  -2.318  0.00  0.00    -0.293 OA
ATOM      9  C9   11 d          -3.433 -11.852  -1.139  0.00  0.00     0.093 C 
ATOM     10  C10  11 d          -3.248 -13.379  -1.272  0.00  0.00     0.031 C 
ATOM     11  C11  11 d          -1.803 -13.904  -1.274  0.00  0.00    -0.053 A 
ATOM     12  C12  11 d          -1.549 -15.264  -1.578  0.00  0.00     0.007 A 
ATOM     13  C13  11 d          -0.239 -15.763  -1.646  0.00  0.00     0.001 A 
ATOM     14  C14  11 d           0.848 -14.919  -1.396  0.00  0.00     0.000 A 
ATOM     15  C15  11 d           0.625 -13.577  -1.069  0.00  0.00     0.001 A 
ATOM     16  C16  11 d          -0.684 -13.075  -1.004  0.00  0.00     0.007 A 
ATOM     17  C17  11 d          -4.080 -13.797  -2.507  0.00  0.00     0.067 C 
ATOM     18  C18  11 d          -3.725 -13.065  -3.796  0.00  0.00     0.022 C 
ATOM     19  N1   11 d          -4.019 -13.788  -4.949  0.00  0.00    -0.357 N 
ATOM     20  C19  11 d          -4.626 -13.204  -6.042  0.00  0.00     0.059 A 
ATOM     21  C20  11 d          -4.043 -12.097  -6.680  0.00  0.00     0.055 A 
ATOM     22  C21  11 d          -4.659 -11.524  -7.806  0.00  0.00     0.031 A 
ATOM     23  C22  11 d          -5.869 -12.047  -8.287  0.00  0.00     0.002 A 
ATOM     24  C23  11 d          -6.454 -13.155  -7.654  0.00  0.00     0.002 A 
ATOM     25  C24  11 d          -5.830 -13.736  -6.539  0.00  0.00     0.032 A 
ATOM     26  N2   11 d          -2.822 -11.644  -6.248  0.00  0.00    -0.375 N 
ATOM     27  C25  11 d          -0.272 -10.978  -3.938  0.00  0.00     0.010 A 
ATOM     28  C26  11 d           1.044 -10.496  -3.901  0.00  0.00     0.018 A 
ATOM     29  H14  11 d          -3.810 -14.760  -4.989  0.00  0.00     0.166 HD
ATOM     30  H19  11 d          -2.052 -11.794  -6.864  0.00  0.00     0.160 HD
ENDROOT
BRANCH   1  31
ATOM     31  C1   11 d           2.886  -9.040  -4.800  0.00  0.00     0.292 C 
ATOM     32  O2   11 d           3.286  -8.201  -5.649  0.00  0.00    -0.259 OA
BRANCH  31  33
ATOM     33  O3   11 d           3.752  -9.401  -3.728  0.00  0.00    -0.323 OA
ATOM     34  C27  11 d           4.784 -10.297  -4.205  0.00  0.00     0.213 C 
ENDBRANCH  31  33
ENDBRANCH   1  31
TORSDOF 2
