REMARK  4 active torsions:
REMARK  status: ('A' for Active; 'I' for Inactive)
REMARK    1  A    between atoms: C3_3  and  N1_4 
REMARK    2  A    between atoms: N1_4  and  C4_5 
REMARK    3  A    between atoms: C7_8  and  C8_9 
REMARK    4  A    between atoms: C20_22  and  N3_23 
ROOT
ATOM      1  C1   11 d           0.588   6.582  -2.922  0.00  0.00    -0.019 A 
ATOM      2  C2   11 d           1.570   6.647  -1.937  0.00  0.00     0.073 A 
ATOM      3  C3   11 d           2.967   7.172  -2.167  0.00  0.00     0.238 C 
ATOM      4  C14  11 d           3.237   7.242  -3.697  0.00  0.00     0.040 C 
ATOM      5  C15  11 d           2.075   7.894  -4.476  0.00  0.00     0.007 C 
ATOM      6  C16  11 d           0.765   7.093  -4.326  0.00  0.00     0.042 C 
ATOM      7  N2   11 d           1.097   6.149  -0.770  0.00  0.00    -0.250 NA
ATOM      8  C17  11 d          -0.198   5.829  -0.985  0.00  0.00     0.068 A 
ATOM      9  C18  11 d          -0.545   6.109  -2.292  0.00  0.00     0.003 A 
ATOM     10  C19  11 d          -1.842   5.892  -2.774  0.00  0.00     0.050 A 
ATOM     11  C20  11 d          -2.824   5.369  -1.887  0.00  0.00     0.103 A 
ATOM     12  C21  11 d          -2.442   5.072  -0.545  0.00  0.00     0.038 A 
ATOM     13  C22  11 d          -1.129   5.302  -0.088  0.00  0.00     0.035 A 
ENDROOT
BRANCH   3  14
ATOM     14  N1   11 d           3.090   8.477  -1.425  0.00  0.00    -0.061 N 
ATOM     15  H2   11 d           2.318   9.143  -1.753  0.00  0.00     0.278 HD
ATOM     16  H3   11 d           2.854   8.263  -0.400  0.00  0.00     0.278 HD
BRANCH  14  17
ATOM     17  C4   11 d           4.441   9.159  -1.485  0.00  0.00     0.186 C 
ATOM     18  C5   11 d           4.884   9.725  -0.117  0.00  0.00     0.033 C 
ATOM     19  C6   11 d           4.018  10.914   0.325  0.00  0.00     0.007 C 
ATOM     20  C7   11 d           4.041  12.085  -0.696  0.00  0.00    -0.007 C 
ATOM     21  C12  11 d           3.705  11.554  -2.117  0.00  0.00     0.007 C 
ATOM     22  C13  11 d           4.517  10.311  -2.518  0.00  0.00     0.033 C 
BRANCH  20  23
ATOM     23  C8   11 d           3.203  13.351  -0.258  0.00  0.00    -0.048 C 
ATOM     24  C9   11 d           3.323  14.482  -1.313  0.00  0.00     0.015 C 
ATOM     25  C10  11 d           3.749  13.932   1.072  0.00  0.00     0.015 C 
ATOM     26  C11  11 d           1.696  13.051  -0.059  0.00  0.00     0.015 C 
ENDBRANCH  20  23
ENDBRANCH  14  17
ENDBRANCH   3  14
BRANCH  11  27
ATOM     27  N3   11 d          -4.132   5.142  -2.320  0.00  0.00    -0.116 N 
ATOM     28  O1   11 d          -4.466   5.485  -3.361  0.00  0.00    -0.532 OA
ATOM     29  O2   11 d          -5.021   4.760  -1.509  0.00  0.00    -0.532 OA
ENDBRANCH  11  27
TORSDOF 4
