REMARK  5 active torsions:
REMARK  status: ('A' for Active; 'I' for Inactive)
REMARK    1  A    between atoms: C3_3  and  N1_4 
REMARK    2  A    between atoms: N1_4  and  C4_5 
REMARK    3  A    between atoms: N2_8  and  C7_9 
REMARK    4  A    between atoms: C7_9  and  C8_10 
REMARK    5  A    between atoms: C22_25  and  N4_26 
ROOT
ATOM      1  N1   11 d           2.949   8.506  -1.432  0.00  0.00    -0.061 N 
ATOM      2  H2   11 d           2.132   9.116  -1.764  0.00  0.00     0.278 HD
ATOM      3  H3   11 d           2.731   8.273  -0.406  0.00  0.00     0.278 HD
ENDROOT
BRANCH   1   4
ATOM      4  C3   11 d           2.898   7.198  -2.184  0.00  0.00     0.238 C 
ATOM      5  C2   11 d           1.537   6.586  -1.944  0.00  0.00     0.073 A 
ATOM      6  C1   11 d           0.577   6.387  -2.934  0.00  0.00    -0.019 A 
ATOM      7  N3   11 d           1.043   6.238  -0.733  0.00  0.00    -0.250 NA
ATOM      8  C18  11 d           0.746   6.819  -4.365  0.00  0.00     0.042 C 
ATOM      9  C20  11 d          -0.559   5.965  -2.273  0.00  0.00     0.003 A 
ATOM     10  C17  11 d           1.938   7.785  -4.514  0.00  0.00     0.007 C 
ATOM     11  C16  11 d           3.163   7.293  -3.716  0.00  0.00     0.040 C 
ATOM     12  C19  11 d          -0.236   5.853  -0.935  0.00  0.00     0.068 A 
ATOM     13  C21  11 d          -1.845   5.678  -2.747  0.00  0.00     0.050 A 
ATOM     14  C24  11 d          -1.177   5.421   0.002  0.00  0.00     0.035 A 
ATOM     15  C23  11 d          -2.479   5.119  -0.449  0.00  0.00     0.038 A 
ATOM     16  C22  11 d          -2.838   5.252  -1.822  0.00  0.00     0.103 A 
BRANCH  16  17
ATOM     17  N4   11 d          -4.138   4.966  -2.247  0.00  0.00    -0.116 N 
ATOM     18  O1   11 d          -4.457   5.200  -3.322  0.00  0.00    -0.532 OA
ATOM     19  O2   11 d          -5.041   4.696  -1.408  0.00  0.00    -0.532 OA
ENDBRANCH  16  17
ENDBRANCH   1   4
BRANCH   1  20
ATOM     20  C4   11 d           4.259   9.276  -1.501  0.00  0.00     0.190 C 
ATOM     21  C5   11 d           4.773   9.795  -0.130  0.00  0.00     0.060 C 
ATOM     22  C6   11 d           4.080  11.090   0.356  0.00  0.00     0.237 C 
ATOM     23  N2   11 d           4.093  12.211  -0.654  0.00  0.00    -0.067 N 
ATOM     24  C14  11 d           3.542  11.721  -1.971  0.00  0.00     0.237 C 
ATOM     25  H9   11 d           3.410  12.961  -0.290  0.00  0.00     0.280 HD
ATOM     26  C15  11 d           4.243  10.457  -2.509  0.00  0.00     0.060 C 
BRANCH  23  27
ATOM     27  C7   11 d           5.438  12.892  -0.745  0.00  0.00     0.273 C 
BRANCH  27  28
ATOM     28  C8   11 d           5.454  14.042  -1.727  0.00  0.00    -0.033 A 
ATOM     29  C9   11 d           6.208  13.958  -2.917  0.00  0.00     0.009 A 
ATOM     30  C10  11 d           6.229  15.031  -3.819  0.00  0.00     0.001 A 
ATOM     31  C11  11 d           5.510  16.201  -3.536  0.00  0.00     0.000 A 
ATOM     32  C12  11 d           4.780  16.305  -2.344  0.00  0.00     0.001 A 
ATOM     33  C13  11 d           4.763  15.236  -1.434  0.00  0.00     0.009 A 
ENDBRANCH  27  28
ENDBRANCH  23  27
ENDBRANCH   1  20
TORSDOF 5
