REMARK  1 active torsions:
REMARK  status: ('A' for Active; 'I' for Inactive)
REMARK    1  A    between atoms: C1_1  and  C2_2 
ROOT
ATOM      1  C1   11 d           3.362   4.566  -2.394  0.00  0.00     0.059 A 
ATOM      2  C4   11 d           4.478   3.873  -2.853  0.00  0.00     0.067 A 
ATOM      3  N1   11 d           4.429   2.625  -2.355  0.00  0.00    -0.171 NA
ATOM      4  N2   11 d           3.381   2.498  -1.593  0.00  0.00    -0.237 N 
ATOM      5  C5   11 d           2.677   3.663  -1.577  0.00  0.00     0.048 A 
ATOM      6  C6   11 d           1.262   3.829  -1.091  0.00  0.00     0.071 C 
ATOM      7  C7   11 d           3.080   1.257  -0.909  0.00  0.00     0.058 A 
ATOM      8  C8   11 d           3.477   0.032  -1.488  0.00  0.00     0.031 A 
ATOM      9  C9   11 d           3.219  -1.186  -0.841  0.00  0.00     0.002 A 
ATOM     10  C10  11 d           2.559  -1.197   0.396  0.00  0.00     0.000 A 
ATOM     11  C11  11 d           2.171   0.011   0.991  0.00  0.00     0.002 A 
ATOM     12  C12  11 d           2.440   1.230   0.349  0.00  0.00     0.031 A 
ATOM     13  C13  11 d           5.486   4.296  -3.879  0.00  0.00     0.073 C 
ENDROOT
BRANCH   1  14
ATOM     14  C2   11 d           3.003   5.980  -2.707  0.00  0.00     0.159 C 
ATOM     15  O1   11 d           3.513   6.545  -3.706  0.00  0.00    -0.293 OA
ATOM     16  C3   11 d           2.221   6.831  -1.750  0.00  0.00     0.097 C 
ENDBRANCH   1  14
TORSDOF 1
