REMARK  3 active torsions:
REMARK  status: ('A' for Active; 'I' for Inactive)
REMARK    1  A    between atoms: C7_7  and  O1_8 
REMARK    2  A    between atoms: O1_8  and  C8_9 
REMARK    3  A    between atoms: C8_9  and  C9_10 
ROOT
ATOM      1  C1   11 d           4.823   0.818   4.424  0.00  0.00     0.299 A 
ATOM      2  C2   11 d           6.010   1.276   3.816  0.00  0.00     0.051 A 
ATOM      3  C3   11 d           5.908   2.167   2.706  0.00  0.00    -0.007 A 
ATOM      4  C4   11 d           4.611   2.565   2.264  0.00  0.00     0.010 A 
ATOM      5  C5   11 d           3.480   2.044   2.959  0.00  0.00     0.099 A 
ATOM      6  C6   11 d           2.164   2.416   2.592  0.00  0.00     0.006 A 
ATOM      7  C7   11 d           1.974   3.314   1.520  0.00  0.00     0.078 A 
ATOM      8  C11  11 d           3.078   3.798   0.808  0.00  0.00     0.038 A 
ATOM      9  C12  11 d           4.380   3.442   1.177  0.00  0.00     0.018 A 
ATOM     10  C13  11 d           0.974   1.747   3.242  0.00  0.00     0.054 C 
ATOM     11  O3   11 d           3.651   1.216   3.974  0.00  0.00    -0.273 OA
ATOM     12  C14  11 d           7.112   2.615   2.100  0.00  0.00     0.013 A 
ATOM     13  C15  11 d           8.361   2.198   2.580  0.00  0.00     0.001 A 
ATOM     14  C16  11 d           8.445   1.330   3.671  0.00  0.00     0.001 A 
ATOM     15  C17  11 d           7.278   0.868   4.287  0.00  0.00     0.018 A 
ATOM     16  O4   11 d           4.862   0.031   5.404  0.00  0.00    -0.259 OA
ENDROOT
BRANCH   7  17
ATOM     17  O1   11 d           0.671   3.660   1.064  0.00  0.00    -0.343 OA
BRANCH  17  18
ATOM     18  C8   11 d           0.182   4.810   1.810  0.00  0.00     0.253 C 
BRANCH  18  19
ATOM     19  C9   11 d          -1.200   5.226   1.379  0.00  0.00     0.146 C 
ATOM     20  O2   11 d          -2.034   5.538   2.266  0.00  0.00    -0.296 OA
ATOM     21  C10  11 d          -1.700   5.008  -0.018  0.00  0.00     0.093 C 
ENDBRANCH  18  19
ENDBRANCH  17  18
ENDBRANCH   7  17
TORSDOF 3
