REMARK  3 active torsions:
REMARK  status: ('A' for Active; 'I' for Inactive)
REMARK       I    between atoms: C1_1  and  N1_2 
REMARK    1  A    between atoms: C1_1  and  C4_6 
REMARK    2  A    between atoms: C4_6  and  C5_7 
REMARK    3  A    between atoms: C4_6  and  C11_13 
ROOT
ATOM      1  C4   11 d           2.869  -9.897  -4.653  0.00  0.00     0.144 C 
ENDROOT
BRANCH   1   2
ATOM      2  C1   11 d           3.147  -9.286  -6.025  0.00  0.00     0.232 C 
ATOM      3  N1   11 d           2.638  -8.000  -6.367  0.00  0.00    -0.360 N 
ATOM      4  C2   11 d           3.527  -6.811  -6.264  0.00  0.00     0.152 C 
ATOM      5  C3   11 d           1.233  -7.822  -6.829  0.00  0.00     0.152 C 
ATOM      6  O1   11 d           3.869  -9.897  -6.889  0.00  0.00    -0.272 OA
ENDBRANCH   1   2
BRANCH   1   7
ATOM      7  C5   11 d           3.652 -11.194  -4.399  0.00  0.00    -0.041 A 
ATOM      8  C6   11 d           5.064 -11.134  -4.471  0.00  0.00     0.008 A 
ATOM      9  C7   11 d           5.852 -12.271  -4.242  0.00  0.00     0.001 A 
ATOM     10  C8   11 d           5.246 -13.493  -3.927  0.00  0.00     0.000 A 
ATOM     11  C9   11 d           3.851 -13.574  -3.833  0.00  0.00     0.001 A 
ATOM     12  C10  11 d           3.060 -12.437  -4.059  0.00  0.00     0.008 A 
ENDBRANCH   1   7
BRANCH   1  13
ATOM     13  C11  11 d           1.359 -10.042  -4.506  0.00  0.00    -0.041 A 
ATOM     14  C12  11 d           0.671  -9.339  -3.495  0.00  0.00     0.008 A 
ATOM     15  C13  11 d          -0.722  -9.460  -3.363  0.00  0.00     0.001 A 
ATOM     16  C14  11 d          -1.443 -10.280  -4.241  0.00  0.00     0.000 A 
ATOM     17  C15  11 d          -0.775 -10.981  -5.253  0.00  0.00     0.001 A 
ATOM     18  C16  11 d           0.616 -10.863  -5.388  0.00  0.00     0.008 A 
ENDBRANCH   1  13
TORSDOF 3
