REMARK  1 active torsions:
REMARK  status: ('A' for Active; 'I' for Inactive)
REMARK    1  A    between atoms: C7_8  and  S1_10 
ROOT
ATOM      1  C1   11 d          -4.892  -4.245   3.615  0.00  0.00     0.105 A 
ATOM      2  C2   11 d          -5.917  -4.907   4.306  0.00  0.00     0.006 A 
ATOM      3  C3   11 d          -6.927  -4.104   4.918  0.00  0.00    -0.024 A 
ATOM      4  C4   11 d          -6.870  -2.689   4.816  0.00  0.00     0.015 A 
ATOM      5  C5   11 d          -5.820  -2.062   4.111  0.00  0.00     0.040 A 
ATOM      6  C6   11 d          -4.849  -2.875   3.523  0.00  0.00     0.108 A 
ATOM      7  O1   11 d          -3.812  -2.486   2.834  0.00  0.00    -0.284 OA
ATOM      8  C7   11 d          -3.195  -3.594   2.486  0.00  0.00     0.210 A 
ATOM      9  N1   11 d          -3.823  -4.712   2.945  0.00  0.00    -0.215 NA
ATOM     10  C9   11 d          -7.973  -4.734   5.618  0.00  0.00     0.012 A 
ATOM     11  C10  11 d          -8.018  -6.134   5.712  0.00  0.00     0.001 A 
ATOM     12  C11  11 d          -7.022  -6.918   5.109  0.00  0.00     0.001 A 
ATOM     13  C12  11 d          -5.972  -6.309   4.407  0.00  0.00     0.014 A 
ENDROOT
BRANCH   8  14
ATOM     14  S1   11 d          -1.678  -3.564   1.493  0.00  0.00    -0.089 SA
ATOM     15  C8   11 d          -1.401  -5.378   1.440  0.00  0.00     0.099 C 
ENDBRANCH   8  14
TORSDOF 1
