REMARK  6 active torsions:
REMARK  status: ('A' for Active; 'I' for Inactive)
REMARK    1  A    between atoms: C1_1  and  C2_2 
REMARK    2  A    between atoms: C1_1  and  O3_26 
REMARK    3  A    between atoms: C11_13  and  N1_14 
REMARK       I    between atoms: N1_14  and  C12_15 
REMARK    4  A    between atoms: C12_15  and  C13_17 
REMARK    5  A    between atoms: C13_17  and  S2_18 
REMARK    6  A    between atoms: S2_18  and  C14_19 
ROOT
ATOM      1  C2   11 d           3.787  -4.112   0.634  0.00  0.00     0.085 A 
ATOM      2  C3   11 d           4.681  -3.016   0.709  0.00  0.00    -0.000 A 
ATOM      3  C4   11 d           5.945  -2.928   1.484  0.00  0.00    -0.024 A 
ATOM      4  C5   11 d           7.078  -2.294   0.932  0.00  0.00     0.014 A 
ATOM      5  C6   11 d           8.255  -2.157   1.684  0.00  0.00     0.024 A 
ATOM      6  C7   11 d           8.310  -2.644   2.999  0.00  0.00     0.034 A 
ATOM      7 Cl1   11 d           9.798  -2.457   3.957  0.00  0.00    -0.084 Cl
ATOM      8  C8   11 d           7.188  -3.271   3.559  0.00  0.00     0.024 A 
ATOM      9  C9   11 d           6.011  -3.411   2.808  0.00  0.00     0.014 A 
ATOM     10  C10  11 d           4.169  -1.934   0.002  0.00  0.00     0.065 A 
ATOM     11  S1   11 d           2.834  -2.315  -0.542  0.00  0.00    -0.082 SA
ATOM     12  C11  11 d           2.642  -3.736  -0.093  0.00  0.00     0.093 A 
ENDROOT
BRANCH  12  13
ATOM     13  N1   11 d           1.460  -4.574  -0.380  0.00  0.00    -0.320 N 
ATOM     14  C12  11 d           0.304  -4.143  -1.114  0.00  0.00     0.232 C 
ATOM     15  O1   11 d           0.225  -2.956  -1.587  0.00  0.00    -0.272 OA
ATOM     16  H6   11 d           1.458  -5.580  -0.013  0.00  0.00     0.169 HD
BRANCH  14  17
ATOM     17  C13  11 d          -0.853  -5.073  -1.329  0.00  0.00     0.182 C 
BRANCH  17  18
ATOM     18  S2   11 d          -0.753  -5.855  -2.989  0.00  0.00    -0.121 SA
BRANCH  18  19
ATOM     19  C14  11 d          -2.386  -6.621  -2.851  0.00  0.00     0.001 A 
ATOM     20  C15  11 d          -3.515  -5.972  -3.380  0.00  0.00     0.018 A 
ATOM     21  C16  11 d          -4.785  -6.556  -3.252  0.00  0.00     0.001 A 
ATOM     22  C17  11 d          -4.928  -7.790  -2.598  0.00  0.00     0.000 A 
ATOM     23  C18  11 d          -3.801  -8.442  -2.075  0.00  0.00     0.001 A 
ATOM     24  C19  11 d          -2.530  -7.860  -2.204  0.00  0.00     0.018 A 
ENDBRANCH  18  19
ENDBRANCH  17  18
ENDBRANCH  14  17
ENDBRANCH  12  13
BRANCH   1  25
ATOM     25  C1   11 d           4.049  -5.463   1.199  0.00  0.00     0.296 C 
ATOM     26  O2   11 d           5.235  -5.875   1.298  0.00  0.00    -0.259 OA
BRANCH  25  27
ATOM     27  O3   11 d           2.978  -6.287   1.659  0.00  0.00    -0.322 OA
ATOM     28  C20  11 d           3.246  -6.831   2.977  0.00  0.00     0.213 C 
ENDBRANCH  25  27
ENDBRANCH   1  25
TORSDOF 6
