REMARK  2 active torsions:
REMARK  status: ('A' for Active; 'I' for Inactive)
REMARK    1  A    between atoms: C4_5  and  C7_8 
REMARK    2  A    between atoms: C7_8  and  N1_9 
ROOT
ATOM      1  N1   11 d          -3.002 -10.466  -6.440  0.00  0.00    -0.066 N 
ATOM      2  C8   11 d          -4.492 -10.144  -6.456  0.00  0.00     0.262 C 
ATOM      3  C9   11 d          -5.352 -10.581  -7.678  0.00  0.00     0.260 C 
ATOM      4  N2   11 d          -4.964 -10.050  -9.028  0.00  0.00    -0.073 N 
ATOM      5  C10  11 d          -3.499 -10.094  -9.348  0.00  0.00     0.234 C 
ATOM      6  C11  11 d          -2.731 -11.349  -8.877  0.00  0.00     0.055 C 
ATOM      7  C12  11 d          -2.629 -11.615  -7.348  0.00  0.00     0.237 C 
ATOM      8  H7   11 d          -2.467  -9.597  -6.779  0.00  0.00     0.280 HD
ATOM      9  H12  11 d          -5.496 -10.609  -9.778  0.00  0.00     0.277 HD
ATOM     10  H13  11 d          -5.309  -9.036  -9.126  0.00  0.00     0.277 HD
ENDROOT
BRANCH   1  11
ATOM     11  C7   11 d          -2.526 -10.694  -5.022  0.00  0.00     0.273 C 
BRANCH  11  12
ATOM     12  C4   11 d          -1.021 -10.599  -4.877  0.00  0.00    -0.032 A 
ATOM     13  C3   11 d          -0.238 -11.761  -4.702  0.00  0.00     0.012 A 
ATOM     14  C2   11 d           1.148 -11.661  -4.503  0.00  0.00     0.043 A 
ATOM     15  C1   11 d           1.760 -10.402  -4.448  0.00  0.00     0.116 A 
ATOM     16  F1   11 d           3.106 -10.305  -4.266  0.00  0.00    -0.206 F 
ATOM     17  C6   11 d           0.986  -9.240  -4.573  0.00  0.00     0.043 A 
ATOM     18  C5   11 d          -0.401  -9.336  -4.771  0.00  0.00     0.012 A 
ENDBRANCH  11  12
ENDBRANCH   1  11
TORSDOF 2
