REMARK  6 active torsions:
REMARK  status: ('A' for Active; 'I' for Inactive)
REMARK    1  A    between atoms: N1_1  and  C1_2 
REMARK    2  A    between atoms: C1_2  and  P1_3 
REMARK    3  A    between atoms: P1_3  and  O2_5 
REMARK    4  A    between atoms: P1_3  and  O3_8 
REMARK    5  A    between atoms: O2_5  and  C2_6 
REMARK    6  A    between atoms: O3_8  and  C4_9 
ROOT
ATOM      1  C1   11 d           4.705  -0.785  -4.904  0.00  0.00     0.366 C 
ENDROOT
BRANCH   1   2
ATOM      2  N1   11 d           6.026  -1.317  -4.398  0.00  0.00    -0.056 N 
ATOM      3  C6   11 d           6.630  -0.357  -3.408  0.00  0.00     0.261 C 
ATOM      4  C7   11 d           8.009  -0.831  -2.938  0.00  0.00     0.195 C 
ATOM      5  O4   11 d           8.870  -1.019  -4.088  0.00  0.00    -0.388 OA
ATOM      6  C8   11 d           8.360  -2.031  -4.992  0.00  0.00     0.195 C 
ATOM      7  C9   11 d           6.993  -1.593  -5.523  0.00  0.00     0.261 C 
ATOM      8  H1   11 d           5.857  -2.236  -3.864  0.00  0.00     0.280 HD
ENDBRANCH   1   2
BRANCH   1   9
ATOM      9  P1   11 d           3.657  -1.957  -5.485  0.00  0.00     0.354 P 
ATOM     10  O1   11 d           4.330  -3.222  -5.583  0.00  0.00    -0.257 OA
BRANCH   9  11
ATOM     11  O2   11 d           3.095  -1.484  -6.929  0.00  0.00    -0.313 OA
BRANCH  11  12
ATOM     12  C2   11 d           3.921  -1.945  -8.032  0.00  0.00     0.174 C 
ATOM     13  C3   11 d           3.370  -1.370  -9.327  0.00  0.00     0.034 C 
ENDBRANCH  11  12
ENDBRANCH   9  11
BRANCH   9  14
ATOM     14  O3   11 d           2.395  -2.039  -4.470  0.00  0.00    -0.313 OA
BRANCH  14  15
ATOM     15  C4   11 d           2.424  -3.209  -3.611  0.00  0.00     0.174 C 
ATOM     16  C5   11 d           1.246  -3.134  -2.652  0.00  0.00     0.034 C 
ENDBRANCH  14  15
ENDBRANCH   9  14
ENDBRANCH   1   9
TORSDOF 6
