REMARK  0 active torsions:
REMARK  status: ('A' for Active; 'I' for Inactive)
ROOT
ATOM      1  C1   11 d           2.530   0.435   3.720  0.00  0.00     0.309 A 
ATOM      2  C2   11 d           3.162   0.806   2.497  0.00  0.00     0.112 A 
ATOM      3  C3   11 d           4.215   1.663   2.434  0.00  0.00     0.095 A 
ATOM      4  C4   11 d           4.690   1.897   1.116  0.00  0.00     0.031 A 
ATOM      5  C5   11 d           3.930   1.164   0.209  0.00  0.00     0.111 A 
ATOM      6  N1   11 d           4.088   1.132  -1.128  0.00  0.00    -0.244 NA
ATOM      7  C6   11 d           5.098   1.903  -1.595  0.00  0.00     0.047 A 
ATOM      8  C7   11 d           5.928   2.692  -0.800  0.00  0.00    -0.009 A 
ATOM      9  C8   11 d           5.729   2.686   0.585  0.00  0.00     0.028 A 
ATOM     10  C9   11 d           7.058   3.482  -1.401  0.00  0.00     0.209 C 
ATOM     11  O1   11 d           7.002   3.598  -2.823  0.00  0.00    -0.376 OA
ATOM     12  C10  11 d           6.672   2.382  -3.514  0.00  0.00     0.059 C 
ATOM     13  C11  11 d           5.266   1.929  -3.093  0.00  0.00     0.097 C 
ATOM     14  C12  11 d           7.674   1.313  -3.158  0.00  0.00     0.046 C 
ATOM     15  C13  11 d           6.700   2.624  -5.002  0.00  0.00     0.046 C 
ATOM     16  S1   11 d           2.700   0.244   0.966  0.00  0.00    -0.061 SA
ATOM     17  N2   11 d           4.752   2.240   3.582  0.00  0.00    -0.227 NA
ATOM     18  C14  11 d           4.151   1.872   4.671  0.00  0.00     0.146 A 
ATOM     19  O2   11 d           3.092   1.028   4.818  0.00  0.00    -0.260 OA
ATOM     20  C15  11 d           4.771   2.506   5.858  0.00  0.00     0.100 C 
ATOM     21  O3   11 d           1.597  -0.337   3.672  0.00  0.00    -0.258 OA
ENDROOT
TORSDOF 0
