REMARK  4 active torsions:
REMARK  status: ('A' for Active; 'I' for Inactive)
REMARK    1  A    between atoms: C5_5  and  N1_8 
REMARK       I    between atoms: N1_8  and  C8_9 
REMARK    2  A    between atoms: C8_9  and  C9_11 
REMARK    3  A    between atoms: C9_11  and  S1_12 
REMARK    4  A    between atoms: S1_12  and  C10_13 
ROOT
ATOM      1  C1   11 d           3.091  -9.922  -4.420  0.00  0.00     0.109 A 
ATOM      2  C2   11 d           1.651 -10.302  -4.443  0.00  0.00    -0.000 A 
ATOM      3  C3   11 d           0.903 -10.132  -5.624  0.00  0.00     0.016 A 
ATOM      4  C4   11 d          -0.457 -10.471  -5.666  0.00  0.00     0.030 A 
ATOM      5  C5   11 d          -1.120 -10.984  -4.532  0.00  0.00     0.034 A 
ATOM      6  C6   11 d          -0.365 -11.161  -3.350  0.00  0.00     0.030 A 
ATOM      7  C7   11 d           0.998 -10.826  -3.308  0.00  0.00     0.016 A 
ATOM      8  N3   11 d           3.765  -9.371  -5.471  0.00  0.00    -0.240 NA
ATOM      9  C17  11 d           5.058  -9.143  -5.120  0.00  0.00     0.075 A 
ATOM     10  C18  11 d           5.302  -9.534  -3.816  0.00  0.00     0.036 A 
ATOM     11  S3   11 d           4.033 -10.075  -3.249  0.00  0.00    -0.067 SA
ATOM     12  C19  11 d           6.558  -9.399  -3.216  0.00  0.00     0.028 A 
ATOM     13  C20  11 d           7.613  -8.865  -3.994  0.00  0.00    -0.061 A 
ATOM     14  C21  11 d           7.354  -8.428  -5.320  0.00  0.00     0.009 A 
ATOM     15  C22  11 d           6.075  -8.579  -5.896  0.00  0.00     0.033 A 
ATOM     16  C23  11 d           8.953  -8.608  -3.365  0.00  0.00     0.048 C 
ENDROOT
BRANCH   5  17
ATOM     17  N1   11 d          -2.562 -11.288  -4.675  0.00  0.00    -0.327 N 
ATOM     18  C8   11 d          -3.447 -11.797  -3.667  0.00  0.00     0.231 C 
ATOM     19  O1   11 d          -3.040 -12.049  -2.481  0.00  0.00    -0.272 OA
ATOM     20  H5   11 d          -2.993 -11.106  -5.642  0.00  0.00     0.169 HD
BRANCH  18  21
ATOM     21  C9   11 d          -4.896 -12.041  -3.982  0.00  0.00     0.184 C 
BRANCH  21  22
ATOM     22  S1   11 d          -5.249 -13.844  -4.027  0.00  0.00    -0.094 SA
BRANCH  22  23
ATOM     23  C10  11 d          -7.022 -13.611  -4.281  0.00  0.00     0.136 A 
ATOM     24  N2   11 d          -7.586 -13.066  -5.393  0.00  0.00    -0.233 NA
ATOM     25  C11  11 d          -8.936 -13.043  -5.239  0.00  0.00     0.075 A 
ATOM     26  C12  11 d          -9.316 -13.573  -4.015  0.00  0.00     0.036 A 
ATOM     27  C16  11 d          -9.895 -12.564  -6.138  0.00  0.00     0.033 A 
ATOM     28  S2   11 d          -8.083 -13.990  -3.285  0.00  0.00    -0.061 SA
ATOM     29  C13  11 d         -10.657 -13.659  -3.623  0.00  0.00     0.021 A 
ATOM     30  C14  11 d         -11.633 -13.182  -4.521  0.00  0.00     0.002 A 
ATOM     31  C15  11 d         -11.255 -12.637  -5.771  0.00  0.00     0.002 A 
ENDBRANCH  22  23
ENDBRANCH  21  22
ENDBRANCH  18  21
ENDBRANCH   5  17
TORSDOF 4
