REMARK  1 active torsions:
REMARK  status: ('A' for Active; 'I' for Inactive)
REMARK    1  A    between atoms: C12_16  and  O3_17 
ROOT
ATOM      1  C1   11 d           4.608   3.924   2.329  0.00  0.00     0.262 A 
ATOM      2  N1   11 d           5.325   3.905   1.104  0.00  0.00    -0.251 N 
ATOM      3  C2   11 d           4.546   3.067   0.270  0.00  0.00     0.233 A 
ATOM      4  O1   11 d           4.825   2.771  -0.939  0.00  0.00    -0.273 OA
ATOM      5  C3   11 d           3.319   2.535   0.915  0.00  0.00     0.146 A 
ATOM      6  C4   11 d           3.348   3.094   2.354  0.00  0.00     0.289 A 
ATOM      7  N2   11 d           2.062   3.788   2.774  0.00  0.00    -0.054 N 
ATOM      8  C5   11 d           2.165   4.495   4.106  0.00  0.00     0.262 C 
ATOM      9  C6   11 d           0.816   5.035   4.595  0.00  0.00     0.195 C 
ATOM     10  O2   11 d          -0.159   3.965   4.623  0.00  0.00    -0.388 OA
ATOM     11  C7   11 d          -0.382   3.413   3.305  0.00  0.00     0.195 C 
ATOM     12  C8   11 d           0.922   2.794   2.799  0.00  0.00     0.262 C 
ATOM     13  C9   11 d           6.608   4.604   0.767  0.00  0.00     0.045 A 
ATOM     14  C10  11 d           7.215   4.477  -0.512  0.00  0.00     0.033 A 
ATOM     15  C11  11 d           8.428   5.112  -0.819  0.00  0.00     0.039 A 
ATOM     16  C12  11 d           9.064   5.920   0.127  0.00  0.00     0.068 A 
ATOM     17  C14  11 d           8.505   6.047   1.402  0.00  0.00     0.039 A 
ATOM     18  C15  11 d           7.292   5.414   1.713  0.00  0.00     0.033 A 
ATOM     19  O4   11 d           4.981   4.572   3.363  0.00  0.00    -0.270 OA
ATOM     20  H4   11 d           1.832   4.540   2.040  0.00  0.00     0.281 HD
ENDROOT
BRANCH  16  21
ATOM     21  O3   11 d          10.342   6.468  -0.151  0.00  0.00    -0.356 OA
ATOM     22  C13  11 d          10.199   7.809  -0.683  0.00  0.00     0.210 C 
ENDBRANCH  16  21
TORSDOF 1
