MODEL 1
REMARK VINA RESULT:      -8.7      0.000      0.000
REMARK  6 active torsions:
REMARK  status: ('A' for Active; 'I' for Inactive)
REMARK    1  A    between atoms: C1_1  and  C2_2 
REMARK    2  A    between atoms: C1_1  and  O3_26 
REMARK    3  A    between atoms: C11_13  and  N1_14 
REMARK       I    between atoms: N1_14  and  C12_15 
REMARK    4  A    between atoms: C12_15  and  C13_17 
REMARK    5  A    between atoms: C13_17  and  S2_18 
REMARK    6  A    between atoms: S2_18  and  C14_19 
ROOT
ATOM      1  C2   11 d         -13.856 205.824 115.546  0.00  0.00     0.085 A 
ATOM      2  C3   11 d         -12.554 206.038 115.031  0.00  0.00    -0.000 A 
ATOM      3  C4   11 d         -12.183 206.549 113.687  0.00  0.00    -0.024 A 
ATOM      4  C5   11 d         -11.110 207.453 113.539  0.00  0.00     0.014 A 
ATOM      5  C6   11 d         -10.720 207.892 112.264  0.00  0.00     0.024 A 
ATOM      6  C7   11 d         -11.391 207.426 111.123  0.00  0.00     0.034 A 
ATOM      7 Cl1   11 d         -10.886 207.972 109.507  0.00  0.00    -0.084 Cl
ATOM      8  C8   11 d         -12.455 206.523 111.260  0.00  0.00     0.024 A 
ATOM      9  C9   11 d         -12.848 206.085 112.533  0.00  0.00     0.014 A 
ATOM     10  C10  11 d         -11.602 205.608 115.949  0.00  0.00     0.065 A 
ATOM     11  S1   11 d         -12.310 205.033 117.129  0.00  0.00    -0.082 SA
ATOM     12  C11  11 d         -13.768 205.198 116.804  0.00  0.00     0.093 A 
ENDROOT
BRANCH  12  13
ATOM     13  N1   11 d         -14.891 204.779 117.666  0.00  0.00    -0.320 N 
ATOM     14  C12  11 d         -15.430 203.450 117.730  0.00  0.00     0.232 C 
ATOM     15  O1   11 d         -14.946 202.505 117.014  0.00  0.00    -0.272 OA
ATOM     16  H6   11 d         -15.345 205.520 118.293  0.00  0.00     0.169 HD
BRANCH  14  17
ATOM     17  C13  11 d         -16.590 203.139 118.627  0.00  0.00     0.182 C 
BRANCH  17  18
ATOM     18  S2   11 d         -16.350 203.905 120.281  0.00  0.00    -0.121 SA
BRANCH  18  19
ATOM     19  C14  11 d         -18.104 203.793 120.712  0.00  0.00     0.001 A 
ATOM     20  C15  11 d         -18.507 203.903 122.054  0.00  0.00     0.018 A 
ATOM     21  C16  11 d         -19.866 203.793 122.390  0.00  0.00     0.001 A 
ATOM     22  C17  11 d         -20.822 203.576 121.386  0.00  0.00     0.000 A 
ATOM     23  C18  11 d         -20.422 203.472 120.045  0.00  0.00     0.001 A 
ATOM     24  C19  11 d         -19.064 203.584 119.707  0.00  0.00     0.018 A 
ENDBRANCH  18  19
ENDBRANCH  17  18
ENDBRANCH  14  17
ENDBRANCH  12  13
BRANCH   1  25
ATOM     25  C1   11 d         -15.115 206.244 114.875  0.00  0.00     0.296 C 
ATOM     26  O2   11 d         -16.060 205.420 114.757  0.00  0.00    -0.259 OA
BRANCH  25  27
ATOM     27  O3   11 d         -15.280 207.576 114.390  0.00  0.00    -0.322 OA
ATOM     28  C20  11 d         -14.829 208.560 115.356  0.00  0.00     0.213 C 
ENDBRANCH  25  27
ENDBRANCH   1  25
TORSDOF 6
ENDMDL
MODEL 2
REMARK VINA RESULT:      -8.4      1.784      1.915
REMARK  6 active torsions:
REMARK  status: ('A' for Active; 'I' for Inactive)
REMARK    1  A    between atoms: C1_1  and  C2_2 
REMARK    2  A    between atoms: C1_1  and  O3_26 
REMARK    3  A    between atoms: C11_13  and  N1_14 
REMARK       I    between atoms: N1_14  and  C12_15 
REMARK    4  A    between atoms: C12_15  and  C13_17 
REMARK    5  A    between atoms: C13_17  and  S2_18 
REMARK    6  A    between atoms: S2_18  and  C14_19 
ROOT
ATOM      1  C2   11 d         -13.025 206.200 116.746  0.00  0.00     0.085 A 
ATOM      2  C3   11 d         -11.808 206.711 116.231  0.00  0.00    -0.000 A 
ATOM      3  C4   11 d         -11.500 207.073 114.824  0.00  0.00    -0.024 A 
ATOM      4  C5   11 d         -10.735 208.223 114.534  0.00  0.00     0.014 A 
ATOM      5  C6   11 d         -10.392 208.536 113.210  0.00  0.00     0.024 A 
ATOM      6  C7   11 d         -10.802 207.698 112.161  0.00  0.00     0.034 A 
ATOM      7 Cl1   11 d         -10.354 208.087 110.483  0.00  0.00    -0.084 Cl
ATOM      8  C8   11 d         -11.558 206.550 112.438  0.00  0.00     0.024 A 
ATOM      9  C9   11 d         -11.904 206.237 113.762  0.00  0.00     0.014 A 
ATOM     10  C10  11 d         -10.848 206.756 117.235  0.00  0.00     0.065 A 
ATOM     11  S1   11 d         -11.445 206.204 118.485  0.00  0.00    -0.082 SA
ATOM     12  C11  11 d         -12.855 205.857 118.100  0.00  0.00     0.093 A 
ENDROOT
BRANCH  12  13
ATOM     13  N1   11 d         -13.869 205.268 118.999  0.00  0.00    -0.320 N 
ATOM     14  C12  11 d         -14.598 205.991 120.003  0.00  0.00     0.232 C 
ATOM     15  O1   11 d         -14.407 207.243 120.186  0.00  0.00    -0.272 OA
ATOM     16  H6   11 d         -14.079 204.223 118.900  0.00  0.00     0.169 HD
BRANCH  14  17
ATOM     17  C13  11 d         -15.592 205.287 120.877  0.00  0.00     0.182 C 
BRANCH  17  18
ATOM     18  S2   11 d         -15.921 203.592 120.247  0.00  0.00    -0.121 SA
BRANCH  18  19
ATOM     19  C14  11 d         -17.708 203.724 120.498  0.00  0.00     0.001 A 
ATOM     20  C15  11 d         -18.220 204.018 121.773  0.00  0.00     0.018 A 
ATOM     21  C16  11 d         -19.608 204.097 121.972  0.00  0.00     0.001 A 
ATOM     22  C17  11 d         -20.484 203.886 120.895  0.00  0.00     0.000 A 
ATOM     23  C18  11 d         -19.974 203.599 119.620  0.00  0.00     0.001 A 
ATOM     24  C19  11 d         -18.587 203.521 119.420  0.00  0.00     0.018 A 
ENDBRANCH  18  19
ENDBRANCH  17  18
ENDBRANCH  14  17
ENDBRANCH  12  13
BRANCH   1  25
ATOM     25  C1   11 d         -14.295 206.094 115.978  0.00  0.00     0.296 C 
ATOM     26  O2   11 d         -14.844 204.969 115.840  0.00  0.00    -0.259 OA
BRANCH  25  27
ATOM     27  O3   11 d         -14.916 207.252 115.421  0.00  0.00    -0.322 OA
ATOM     28  C20  11 d         -15.302 207.042 114.038  0.00  0.00     0.213 C 
ENDBRANCH  25  27
ENDBRANCH   1  25
TORSDOF 6
ENDMDL
MODEL 3
REMARK VINA RESULT:      -8.3      5.349      7.447
REMARK  6 active torsions:
REMARK  status: ('A' for Active; 'I' for Inactive)
REMARK    1  A    between atoms: C1_1  and  C2_2 
REMARK    2  A    between atoms: C1_1  and  O3_26 
REMARK    3  A    between atoms: C11_13  and  N1_14 
REMARK       I    between atoms: N1_14  and  C12_15 
REMARK    4  A    between atoms: C12_15  and  C13_17 
REMARK    5  A    between atoms: C13_17  and  S2_18 
REMARK    6  A    between atoms: S2_18  and  C14_19 
ROOT
ATOM      1  C2   11 d          -9.344 208.812 114.941  0.00  0.00     0.085 A 
ATOM      2  C3   11 d          -8.034 208.741 115.475  0.00  0.00    -0.000 A 
ATOM      3  C4   11 d          -6.748 208.868 114.743  0.00  0.00    -0.024 A 
ATOM      4  C5   11 d          -5.669 209.577 115.313  0.00  0.00     0.014 A 
ATOM      5  C6   11 d          -4.434 209.649 114.650  0.00  0.00     0.024 A 
ATOM      6  C7   11 d          -4.260 209.005 113.415  0.00  0.00     0.034 A 
ATOM      7 Cl1   11 d          -2.690 209.084 112.582  0.00  0.00    -0.084 Cl
ATOM      8  C8   11 d          -5.324 208.293 112.843  0.00  0.00     0.024 A 
ATOM      9  C9   11 d          -6.560 208.222 113.503  0.00  0.00     0.014 A 
ATOM     10  C10  11 d          -8.087 208.434 116.830  0.00  0.00     0.065 A 
ATOM     11  S1   11 d          -9.516 208.247 117.216  0.00  0.00    -0.082 SA
ATOM     12  C11  11 d         -10.279 208.500 115.946  0.00  0.00     0.093 A 
ENDROOT
BRANCH  12  13
ATOM     13  N1   11 d         -11.747 208.436 115.801  0.00  0.00    -0.320 N 
ATOM     14  C12  11 d         -12.489 207.259 115.447  0.00  0.00     0.232 C 
ATOM     15  O1   11 d         -11.897 206.145 115.229  0.00  0.00    -0.272 OA
ATOM     16  H6   11 d         -12.307 209.333 115.968  0.00  0.00     0.169 HD
BRANCH  14  17
ATOM     17  C13  11 d         -13.981 207.312 115.305  0.00  0.00     0.182 C 
BRANCH  17  18
ATOM     18  S2   11 d         -14.647 205.656 114.866  0.00  0.00    -0.121 SA
BRANCH  18  19
ATOM     19  C14  11 d         -15.015 206.131 113.160  0.00  0.00     0.001 A 
ATOM     20  C15  11 d         -16.334 206.067 112.681  0.00  0.00     0.018 A 
ATOM     21  C16  11 d         -16.615 206.414 111.350  0.00  0.00     0.001 A 
ATOM     22  C17  11 d         -15.579 206.827 110.498  0.00  0.00     0.000 A 
ATOM     23  C18  11 d         -14.262 206.897 110.977  0.00  0.00     0.001 A 
ATOM     24  C19  11 d         -13.980 206.553 112.308  0.00  0.00     0.018 A 
ENDBRANCH  18  19
ENDBRANCH  17  18
ENDBRANCH  14  17
ENDBRANCH  12  13
BRANCH   1  25
ATOM     25  C1   11 d          -9.672 209.204 113.544  0.00  0.00     0.296 C 
ATOM     26  O2   11 d          -9.214 210.281 113.078  0.00  0.00    -0.259 OA
BRANCH  25  27
ATOM     27  O3   11 d         -10.473 208.363 112.715  0.00  0.00    -0.322 OA
ATOM     28  C20  11 d         -10.048 208.414 111.328  0.00  0.00     0.213 C 
ENDBRANCH  25  27
ENDBRANCH   1  25
TORSDOF 6
ENDMDL
MODEL 4
REMARK VINA RESULT:      -8.1      6.757     10.225
REMARK  6 active torsions:
REMARK  status: ('A' for Active; 'I' for Inactive)
REMARK    1  A    between atoms: C1_1  and  C2_2 
REMARK    2  A    between atoms: C1_1  and  O3_26 
REMARK    3  A    between atoms: C11_13  and  N1_14 
REMARK       I    between atoms: N1_14  and  C12_15 
REMARK    4  A    between atoms: C12_15  and  C13_17 
REMARK    5  A    between atoms: C13_17  and  S2_18 
REMARK    6  A    between atoms: S2_18  and  C14_19 
ROOT
ATOM      1  C2   11 d          -9.253 208.823 114.165  0.00  0.00     0.085 A 
ATOM      2  C3   11 d          -9.657 208.228 112.944  0.00  0.00    -0.000 A 
ATOM      3  C4   11 d         -10.913 207.485 112.671  0.00  0.00    -0.024 A 
ATOM      4  C5   11 d         -11.593 207.657 111.446  0.00  0.00     0.014 A 
ATOM      5  C6   11 d         -12.747 206.912 111.160  0.00  0.00     0.024 A 
ATOM      6  C7   11 d         -13.231 205.980 112.091  0.00  0.00     0.034 A 
ATOM      7 Cl1   11 d         -14.686 205.025 111.722  0.00  0.00    -0.084 Cl
ATOM      8  C8   11 d         -12.560 205.797 113.309  0.00  0.00     0.024 A 
ATOM      9  C9   11 d         -11.407 206.542 113.598  0.00  0.00     0.014 A 
ATOM     10  C10  11 d          -8.648 208.351 111.997  0.00  0.00     0.065 A 
ATOM     11  S1   11 d          -7.483 209.029 112.633  0.00  0.00    -0.082 SA
ATOM     12  C11  11 d          -7.936 209.304 114.039  0.00  0.00     0.093 A 
ENDROOT
BRANCH  12  13
ATOM     13  N1   11 d          -7.132 209.969 115.085  0.00  0.00    -0.320 N 
ATOM     14  C12  11 d          -6.293 209.291 116.033  0.00  0.00     0.232 C 
ATOM     15  O1   11 d          -6.184 208.016 116.027  0.00  0.00    -0.272 OA
ATOM     16  H6   11 d          -7.176 211.037 115.148  0.00  0.00     0.169 HD
BRANCH  14  17
ATOM     17  C13  11 d          -5.535 210.066 117.070  0.00  0.00     0.182 C 
BRANCH  17  18
ATOM     18  S2   11 d          -5.923 209.441 118.754  0.00  0.00    -0.121 SA
BRANCH  18  19
ATOM     19  C14  11 d          -5.054 210.796 119.580  0.00  0.00     0.001 A 
ATOM     20  C15  11 d          -3.649 210.834 119.581  0.00  0.00     0.018 A 
ATOM     21  C16  11 d          -2.976 211.873 120.242  0.00  0.00     0.001 A 
ATOM     22  C17  11 d          -3.705 212.876 120.900  0.00  0.00     0.000 A 
ATOM     23  C18  11 d          -5.108 212.843 120.894  0.00  0.00     0.001 A 
ATOM     24  C19  11 d          -5.783 211.805 120.232  0.00  0.00     0.018 A 
ENDBRANCH  18  19
ENDBRANCH  17  18
ENDBRANCH  14  17
ENDBRANCH  12  13
BRANCH   1  25
ATOM     25  C1   11 d         -10.112 208.956 115.372  0.00  0.00     0.296 C 
ATOM     26  O2   11 d         -11.236 209.515 115.275  0.00  0.00    -0.259 OA
BRANCH  25  27
ATOM     27  O3   11 d          -9.694 208.430 116.632  0.00  0.00    -0.322 OA
ATOM     28  C20  11 d         -10.663 207.495 117.172  0.00  0.00     0.213 C 
ENDBRANCH  25  27
ENDBRANCH   1  25
TORSDOF 6
ENDMDL
MODEL 5
REMARK VINA RESULT:      -8.1      2.935      3.645
REMARK  6 active torsions:
REMARK  status: ('A' for Active; 'I' for Inactive)
REMARK    1  A    between atoms: C1_1  and  C2_2 
REMARK    2  A    between atoms: C1_1  and  O3_26 
REMARK    3  A    between atoms: C11_13  and  N1_14 
REMARK       I    between atoms: N1_14  and  C12_15 
REMARK    4  A    between atoms: C12_15  and  C13_17 
REMARK    5  A    between atoms: C13_17  and  S2_18 
REMARK    6  A    between atoms: S2_18  and  C14_19 
ROOT
ATOM      1  C2   11 d         -12.414 207.632 116.908  0.00  0.00     0.085 A 
ATOM      2  C3   11 d         -12.267 207.856 115.517  0.00  0.00    -0.000 A 
ATOM      3  C4   11 d         -11.013 208.138 114.772  0.00  0.00    -0.024 A 
ATOM      4  C5   11 d         -10.792 207.561 113.504  0.00  0.00     0.014 A 
ATOM      5  C6   11 d          -9.636 207.872 112.771  0.00  0.00     0.024 A 
ATOM      6  C7   11 d          -8.693 208.770 113.293  0.00  0.00     0.034 A 
ATOM      7 Cl1   11 d          -7.234 209.175 112.358  0.00  0.00    -0.084 Cl
ATOM      8  C8   11 d          -8.906 209.354 114.550  0.00  0.00     0.024 A 
ATOM      9  C9   11 d         -10.060 209.042 115.285  0.00  0.00     0.014 A 
ATOM     10  C10  11 d         -13.513 207.870 114.902  0.00  0.00     0.065 A 
ATOM     11  S1   11 d         -14.558 207.687 115.949  0.00  0.00    -0.082 SA
ATOM     12  C11  11 d         -13.782 207.544 117.228  0.00  0.00     0.093 A 
ENDROOT
BRANCH  12  13
ATOM     13  N1   11 d         -14.367 207.340 118.569  0.00  0.00    -0.320 N 
ATOM     14  C12  11 d         -14.485 206.072 119.231  0.00  0.00     0.232 C 
ATOM     15  O1   11 d         -14.070 204.995 118.677  0.00  0.00    -0.272 OA
ATOM     16  H6   11 d         -14.735 208.200 119.091  0.00  0.00     0.169 HD
BRANCH  14  17
ATOM     17  C13  11 d         -15.117 205.977 120.588  0.00  0.00     0.182 C 
BRANCH  17  18
ATOM     18  S2   11 d         -15.491 204.226 121.004  0.00  0.00    -0.121 SA
BRANCH  18  19
ATOM     19  C14  11 d         -17.273 204.432 120.765  0.00  0.00     0.001 A 
ATOM     20  C15  11 d         -18.002 203.471 120.044  0.00  0.00     0.018 A 
ATOM     21  C16  11 d         -19.380 203.643 119.839  0.00  0.00     0.001 A 
ATOM     22  C17  11 d         -20.031 204.773 120.357  0.00  0.00     0.000 A 
ATOM     23  C18  11 d         -19.306 205.730 121.083  0.00  0.00     0.001 A 
ATOM     24  C19  11 d         -17.928 205.559 121.290  0.00  0.00     0.018 A 
ENDBRANCH  18  19
ENDBRANCH  17  18
ENDBRANCH  14  17
ENDBRANCH  12  13
BRANCH   1  25
ATOM     25  C1   11 d         -11.288 207.468 117.867  0.00  0.00     0.296 C 
ATOM     26  O2   11 d         -10.753 206.337 118.008  0.00  0.00    -0.259 OA
BRANCH  25  27
ATOM     27  O3   11 d         -10.785 208.581 118.605  0.00  0.00    -0.322 OA
ATOM     28  C20  11 d          -9.414 208.369 119.030  0.00  0.00     0.213 C 
ENDBRANCH  25  27
ENDBRANCH   1  25
TORSDOF 6
ENDMDL
MODEL 6
REMARK VINA RESULT:      -7.9      5.366      9.126
REMARK  6 active torsions:
REMARK  status: ('A' for Active; 'I' for Inactive)
REMARK    1  A    between atoms: C1_1  and  C2_2 
REMARK    2  A    between atoms: C1_1  and  O3_26 
REMARK    3  A    between atoms: C11_13  and  N1_14 
REMARK       I    between atoms: N1_14  and  C12_15 
REMARK    4  A    between atoms: C12_15  and  C13_17 
REMARK    5  A    between atoms: C13_17  and  S2_18 
REMARK    6  A    between atoms: S2_18  and  C14_19 
ROOT
ATOM      1  C2   11 d         -11.042 207.930 115.948  0.00  0.00     0.085 A 
ATOM      2  C3   11 d         -12.284 207.252 115.872  0.00  0.00    -0.000 A 
ATOM      3  C4   11 d         -13.114 207.015 114.664  0.00  0.00    -0.024 A 
ATOM      4  C5   11 d         -13.771 205.780 114.481  0.00  0.00     0.014 A 
ATOM      5  C6   11 d         -14.604 205.573 113.370  0.00  0.00     0.024 A 
ATOM      6  C7   11 d         -14.796 206.601 112.434  0.00  0.00     0.034 A 
ATOM      7 Cl1   11 d         -15.863 206.343 111.034  0.00  0.00    -0.084 Cl
ATOM      8  C8   11 d         -14.152 207.834 112.609  0.00  0.00     0.024 A 
ATOM      9  C9   11 d         -13.317 208.042 113.718  0.00  0.00     0.014 A 
ATOM     10  C10  11 d         -12.707 206.888 117.145  0.00  0.00     0.065 A 
ATOM     11  S1   11 d         -11.711 207.388 118.135  0.00  0.00    -0.082 SA
ATOM     12  C11  11 d         -10.660 208.059 117.297  0.00  0.00     0.093 A 
ENDROOT
BRANCH  12  13
ATOM     13  N1   11 d          -9.445 208.723 117.813  0.00  0.00    -0.320 N 
ATOM     14  C12  11 d          -8.273 208.043 118.285  0.00  0.00     0.232 C 
ATOM     15  O1   11 d          -8.204 206.765 118.284  0.00  0.00    -0.272 OA
ATOM     16  H6   11 d          -9.434 209.794 117.843  0.00  0.00     0.169 HD
BRANCH  14  17
ATOM     17  C13  11 d          -7.101 208.818 118.810  0.00  0.00     0.182 C 
BRANCH  17  18
ATOM     18  S2   11 d          -5.525 208.102 118.195  0.00  0.00    -0.121 SA
BRANCH  18  19
ATOM     19  C14  11 d          -5.755 208.746 116.520  0.00  0.00     0.001 A 
ATOM     20  C15  11 d          -5.892 207.860 115.438  0.00  0.00     0.018 A 
ATOM     21  C16  11 d          -6.047 208.360 114.135  0.00  0.00     0.001 A 
ATOM     22  C17  11 d          -6.069 209.746 113.914  0.00  0.00     0.000 A 
ATOM     23  C18  11 d          -5.939 210.632 114.994  0.00  0.00     0.001 A 
ATOM     24  C19  11 d          -5.786 210.133 116.297  0.00  0.00     0.018 A 
ENDBRANCH  18  19
ENDBRANCH  17  18
ENDBRANCH  14  17
ENDBRANCH  12  13
BRANCH   1  25
ATOM     25  C1   11 d         -10.250 208.387 114.776  0.00  0.00     0.296 C 
ATOM     26  O2   11 d          -9.669 209.504 114.816  0.00  0.00    -0.259 OA
BRANCH  25  27
ATOM     27  O3   11 d         -10.112 207.566 113.616  0.00  0.00    -0.322 OA
ATOM     28  C20  11 d          -9.714 208.338 112.454  0.00  0.00     0.213 C 
ENDBRANCH  25  27
ENDBRANCH   1  25
TORSDOF 6
ENDMDL
MODEL 7
REMARK VINA RESULT:      -7.8      6.054      9.776
REMARK  6 active torsions:
REMARK  status: ('A' for Active; 'I' for Inactive)
REMARK    1  A    between atoms: C1_1  and  C2_2 
REMARK    2  A    between atoms: C1_1  and  O3_26 
REMARK    3  A    between atoms: C11_13  and  N1_14 
REMARK       I    between atoms: N1_14  and  C12_15 
REMARK    4  A    between atoms: C12_15  and  C13_17 
REMARK    5  A    between atoms: C13_17  and  S2_18 
REMARK    6  A    between atoms: S2_18  and  C14_19 
ROOT
ATOM      1  C2   11 d         -10.925 207.633 113.228  0.00  0.00     0.085 A 
ATOM      2  C3   11 d         -11.810 207.445 112.138  0.00  0.00    -0.000 A 
ATOM      3  C4   11 d         -13.235 207.027 112.189  0.00  0.00    -0.024 A 
ATOM      4  C5   11 d         -14.183 207.618 111.328  0.00  0.00     0.014 A 
ATOM      5  C6   11 d         -15.518 207.184 111.332  0.00  0.00     0.024 A 
ATOM      6  C7   11 d         -15.917 206.147 112.189  0.00  0.00     0.034 A 
ATOM      7 Cl1   11 d         -17.606 205.587 112.183  0.00  0.00    -0.084 Cl
ATOM      8  C8   11 d         -14.982 205.549 113.045  0.00  0.00     0.024 A 
ATOM      9  C9   11 d         -13.647 205.983 113.044  0.00  0.00     0.014 A 
ATOM     10  C10  11 d         -11.133 207.623 110.938  0.00  0.00     0.065 A 
ATOM     11  S1   11 d          -9.700 207.903 111.241  0.00  0.00    -0.082 SA
ATOM     12  C11  11 d          -9.630 207.891 112.742  0.00  0.00     0.093 A 
ENDROOT
BRANCH  12  13
ATOM     13  N1   11 d          -8.411 208.119 113.546  0.00  0.00    -0.320 N 
ATOM     14  C12  11 d          -8.063 209.359 114.179  0.00  0.00     0.232 C 
ATOM     15  O1   11 d          -8.821 210.387 114.084  0.00  0.00    -0.272 OA
ATOM     16  H6   11 d          -7.731 207.301 113.667  0.00  0.00     0.169 HD
BRANCH  14  17
ATOM     17  C13  11 d          -6.786 209.487 114.956  0.00  0.00     0.182 C 
BRANCH  17  18
ATOM     18  S2   11 d          -6.836 208.428 116.457  0.00  0.00    -0.121 SA
BRANCH  18  19
ATOM     19  C14  11 d          -5.393 207.458 115.958  0.00  0.00     0.001 A 
ATOM     20  C15  11 d          -4.872 207.587 114.659  0.00  0.00     0.018 A 
ATOM     21  C16  11 d          -3.767 206.817 114.265  0.00  0.00     0.001 A 
ATOM     22  C17  11 d          -3.179 205.918 115.170  0.00  0.00     0.000 A 
ATOM     23  C18  11 d          -3.693 205.793 116.469  0.00  0.00     0.001 A 
ATOM     24  C19  11 d          -4.797 206.564 116.865  0.00  0.00     0.018 A 
ENDBRANCH  18  19
ENDBRANCH  17  18
ENDBRANCH  14  17
ENDBRANCH  12  13
BRANCH   1  25
ATOM     25  C1   11 d         -11.323 207.606 114.661  0.00  0.00     0.296 C 
ATOM     26  O2   11 d         -11.642 208.680 115.237  0.00  0.00    -0.259 OA
BRANCH  25  27
ATOM     27  O3   11 d         -11.379 206.377 115.385  0.00  0.00    -0.322 OA
ATOM     28  C20  11 d         -11.477 206.600 116.816  0.00  0.00     0.213 C 
ENDBRANCH  25  27
ENDBRANCH   1  25
TORSDOF 6
ENDMDL
MODEL 8
REMARK VINA RESULT:      -7.6      5.389     10.026
REMARK  6 active torsions:
REMARK  status: ('A' for Active; 'I' for Inactive)
REMARK    1  A    between atoms: C1_1  and  C2_2 
REMARK    2  A    between atoms: C1_1  and  O3_26 
REMARK    3  A    between atoms: C11_13  and  N1_14 
REMARK       I    between atoms: N1_14  and  C12_15 
REMARK    4  A    between atoms: C12_15  and  C13_17 
REMARK    5  A    between atoms: C13_17  and  S2_18 
REMARK    6  A    between atoms: S2_18  and  C14_19 
ROOT
ATOM      1  C2   11 d         -11.185 207.560 114.363  0.00  0.00     0.085 A 
ATOM      2  C3   11 d         -12.514 207.461 114.843  0.00  0.00    -0.000 A 
ATOM      3  C4   11 d         -13.735 207.118 114.069  0.00  0.00    -0.024 A 
ATOM      4  C5   11 d         -14.724 206.282 114.629  0.00  0.00     0.014 A 
ATOM      5  C6   11 d         -15.905 206.005 113.924  0.00  0.00     0.024 A 
ATOM      6  C7   11 d         -16.115 206.566 112.655  0.00  0.00     0.034 A 
ATOM      7 Cl1   11 d         -17.619 206.225 111.767  0.00  0.00    -0.084 Cl
ATOM      8  C8   11 d         -15.141 207.402 112.091  0.00  0.00     0.024 A 
ATOM      9  C9   11 d         -13.958 207.679 112.794  0.00  0.00     0.014 A 
ATOM     10  C10  11 d         -12.565 207.826 116.183  0.00  0.00     0.065 A 
ATOM     11  S1   11 d         -11.198 208.236 116.613  0.00  0.00    -0.082 SA
ATOM     12  C11  11 d         -10.350 208.046 115.387  0.00  0.00     0.093 A 
ENDROOT
BRANCH  12  13
ATOM     13  N1   11 d          -8.902 208.318 115.294  0.00  0.00    -0.320 N 
ATOM     14  C12  11 d          -8.318 209.461 114.652  0.00  0.00     0.232 C 
ATOM     15  O1   11 d          -9.049 210.354 114.098  0.00  0.00    -0.272 OA
ATOM     16  H6   11 d          -8.230 207.610 115.736  0.00  0.00     0.169 HD
BRANCH  14  17
ATOM     17  C13  11 d          -6.828 209.627 114.598  0.00  0.00     0.182 C 
BRANCH  17  18
ATOM     18  S2   11 d          -6.143 208.824 113.093  0.00  0.00    -0.121 SA
BRANCH  18  19
ATOM     19  C14  11 d          -4.879 207.918 114.016  0.00  0.00     0.001 A 
ATOM     20  C15  11 d          -3.582 207.786 113.489  0.00  0.00     0.018 A 
ATOM     21  C16  11 d          -2.608 207.063 114.195  0.00  0.00     0.001 A 
ATOM     22  C17  11 d          -2.927 206.472 115.428  0.00  0.00     0.000 A 
ATOM     23  C18  11 d          -4.219 206.608 115.957  0.00  0.00     0.001 A 
ATOM     24  C19  11 d          -5.194 207.333 115.254  0.00  0.00     0.018 A 
ENDBRANCH  18  19
ENDBRANCH  17  18
ENDBRANCH  14  17
ENDBRANCH  12  13
BRANCH   1  25
ATOM     25  C1   11 d         -10.742 207.164 112.999  0.00  0.00     0.296 C 
ATOM     26  O2   11 d         -11.084 206.044 112.536  0.00  0.00    -0.259 OA
BRANCH  25  27
ATOM     27  O3   11 d          -9.961 208.048 112.195  0.00  0.00    -0.322 OA
ATOM     28  C20  11 d         -10.492 208.162 110.850  0.00  0.00     0.213 C 
ENDBRANCH  25  27
ENDBRANCH   1  25
TORSDOF 6
ENDMDL
MODEL 9
REMARK VINA RESULT:      -7.6      5.337     10.122
REMARK  6 active torsions:
REMARK  status: ('A' for Active; 'I' for Inactive)
REMARK    1  A    between atoms: C1_1  and  C2_2 
REMARK    2  A    between atoms: C1_1  and  O3_26 
REMARK    3  A    between atoms: C11_13  and  N1_14 
REMARK       I    between atoms: N1_14  and  C12_15 
REMARK    4  A    between atoms: C12_15  and  C13_17 
REMARK    5  A    between atoms: C13_17  and  S2_18 
REMARK    6  A    between atoms: S2_18  and  C14_19 
ROOT
ATOM      1  C2   11 d         -10.879 207.975 114.947  0.00  0.00     0.085 A 
ATOM      2  C3   11 d         -12.124 207.522 115.448  0.00  0.00    -0.000 A 
ATOM      3  C4   11 d         -13.317 207.105 114.668  0.00  0.00    -0.024 A 
ATOM      4  C5   11 d         -14.087 205.997 115.080  0.00  0.00     0.014 A 
ATOM      5  C6   11 d         -15.248 205.636 114.379  0.00  0.00     0.024 A 
ATOM      6  C7   11 d         -15.658 206.383 113.265  0.00  0.00     0.034 A 
ATOM      7 Cl1   11 d         -17.138 205.934 112.385  0.00  0.00    -0.084 Cl
ATOM      8  C8   11 d         -14.903 207.489 112.850  0.00  0.00     0.024 A 
ATOM      9  C9   11 d         -13.740 207.851 113.548  0.00  0.00     0.014 A 
ATOM     10  C10  11 d         -12.136 207.599 116.836  0.00  0.00     0.065 A 
ATOM     11  S1   11 d         -10.838 208.178 117.288  0.00  0.00    -0.082 SA
ATOM     12  C11  11 d         -10.070 208.404 116.016  0.00  0.00     0.093 A 
ENDROOT
BRANCH  12  13
ATOM     13  N1   11 d          -8.709 208.970 115.926  0.00  0.00    -0.320 N 
ATOM     14  C12  11 d          -7.570 208.496 116.661  0.00  0.00     0.232 C 
ATOM     15  O1   11 d          -7.669 207.511 117.473  0.00  0.00    -0.272 OA
ATOM     16  H6   11 d          -8.553 209.798 115.266  0.00  0.00     0.169 HD
BRANCH  14  17
ATOM     17  C13  11 d          -6.234 209.160 116.509  0.00  0.00     0.182 C 
BRANCH  17  18
ATOM     18  S2   11 d          -6.285 210.413 115.165  0.00  0.00    -0.121 SA
BRANCH  18  19
ATOM     19  C14  11 d          -5.301 209.402 114.032  0.00  0.00     0.001 A 
ATOM     20  C15  11 d          -5.885 208.882 112.864  0.00  0.00     0.018 A 
ATOM     21  C16  11 d          -5.128 208.079 111.998  0.00  0.00     0.001 A 
ATOM     22  C17  11 d          -3.785 207.797 112.295  0.00  0.00     0.000 A 
ATOM     23  C18  11 d          -3.199 208.321 113.457  0.00  0.00     0.001 A 
ATOM     24  C19  11 d          -3.955 209.126 114.324  0.00  0.00     0.018 A 
ENDBRANCH  18  19
ENDBRANCH  17  18
ENDBRANCH  14  17
ENDBRANCH  12  13
BRANCH   1  25
ATOM     25  C1   11 d         -10.479 207.951 113.515  0.00  0.00     0.296 C 
ATOM     26  O2   11 d          -9.822 208.914 113.037  0.00  0.00    -0.259 OA
BRANCH  25  27
ATOM     27  O3   11 d         -10.802 206.838 112.681  0.00  0.00    -0.322 OA
ATOM     28  C20  11 d         -11.209 207.261 111.354  0.00  0.00     0.213 C 
ENDBRANCH  25  27
ENDBRANCH   1  25
TORSDOF 6
ENDMDL
MODEL 10
REMARK VINA RESULT:      -7.5      5.645      9.077
REMARK  6 active torsions:
REMARK  status: ('A' for Active; 'I' for Inactive)
REMARK    1  A    between atoms: C1_1  and  C2_2 
REMARK    2  A    between atoms: C1_1  and  O3_26 
REMARK    3  A    between atoms: C11_13  and  N1_14 
REMARK       I    between atoms: N1_14  and  C12_15 
REMARK    4  A    between atoms: C12_15  and  C13_17 
REMARK    5  A    between atoms: C13_17  and  S2_18 
REMARK    6  A    between atoms: S2_18  and  C14_19 
ROOT
ATOM      1  C2   11 d         -11.773 207.933 116.213  0.00  0.00     0.085 A 
ATOM      2  C3   11 d         -13.020 207.293 116.010  0.00  0.00    -0.000 A 
ATOM      3  C4   11 d         -13.700 207.019 114.718  0.00  0.00    -0.024 A 
ATOM      4  C5   11 d         -14.376 205.798 114.513  0.00  0.00     0.014 A 
ATOM      5  C6   11 d         -15.069 205.560 113.316  0.00  0.00     0.024 A 
ATOM      6  C7   11 d         -15.101 206.542 112.314  0.00  0.00     0.034 A 
ATOM      7 Cl1   11 d         -15.991 206.245 110.803  0.00  0.00    -0.084 Cl
ATOM      8  C8   11 d         -14.436 207.761 112.511  0.00  0.00     0.024 A 
ATOM      9  C9   11 d         -13.741 208.000 113.706  0.00  0.00     0.014 A 
ATOM     10  C10  11 d         -13.615 207.010 117.235  0.00  0.00     0.065 A 
ATOM     11  S1   11 d         -12.734 207.530 118.319  0.00  0.00    -0.082 SA
ATOM     12  C11  11 d         -11.559 208.121 117.591  0.00  0.00     0.093 A 
ENDROOT
BRANCH  12  13
ATOM     13  N1   11 d         -10.395 208.772 118.227  0.00  0.00    -0.320 N 
ATOM     14  C12  11 d          -9.379 208.089 118.977  0.00  0.00     0.232 C 
ATOM     15  O1   11 d          -9.420 206.821 119.145  0.00  0.00    -0.272 OA
ATOM     16  H6   11 d         -10.298 209.833 118.126  0.00  0.00     0.169 HD
BRANCH  14  17
ATOM     17  C13  11 d          -8.249 208.854 119.599  0.00  0.00     0.182 C 
BRANCH  17  18
ATOM     18  S2   11 d          -6.677 208.527 118.704  0.00  0.00    -0.121 SA
BRANCH  18  19
ATOM     19  C14  11 d          -5.853 209.985 119.387  0.00  0.00     0.001 A 
ATOM     20  C15  11 d          -6.611 211.004 119.990  0.00  0.00     0.018 A 
ATOM     21  C16  11 d          -5.973 212.146 120.499  0.00  0.00     0.001 A 
ATOM     22  C17  11 d          -4.577 212.271 120.408  0.00  0.00     0.000 A 
ATOM     23  C18  11 d          -3.819 211.251 119.811  0.00  0.00     0.001 A 
ATOM     24  C19  11 d          -4.456 210.108 119.304  0.00  0.00     0.018 A 
ENDBRANCH  18  19
ENDBRANCH  17  18
ENDBRANCH  14  17
ENDBRANCH  12  13
BRANCH   1  25
ATOM     25  C1   11 d         -10.821 208.301 115.131  0.00  0.00     0.296 C 
ATOM     26  O2   11 d         -10.231 209.413 115.175  0.00  0.00    -0.259 OA
BRANCH  25  27
ATOM     27  O3   11 d         -10.542 207.400 114.059  0.00  0.00    -0.322 OA
ATOM     28  C20  11 d         -10.114 208.102 112.864  0.00  0.00     0.213 C 
ENDBRANCH  25  27
ENDBRANCH   1  25
TORSDOF 6
ENDMDL
MODEL 11
REMARK VINA RESULT:      -7.2      6.892      9.097
REMARK  6 active torsions:
REMARK  status: ('A' for Active; 'I' for Inactive)
REMARK    1  A    between atoms: C1_1  and  C2_2 
REMARK    2  A    between atoms: C1_1  and  O3_26 
REMARK    3  A    between atoms: C11_13  and  N1_14 
REMARK       I    between atoms: N1_14  and  C12_15 
REMARK    4  A    between atoms: C12_15  and  C13_17 
REMARK    5  A    between atoms: C13_17  and  S2_18 
REMARK    6  A    between atoms: S2_18  and  C14_19 
ROOT
ATOM      1  C2   11 d          -9.039 208.747 114.520  0.00  0.00     0.085 A 
ATOM      2  C3   11 d          -9.250 208.313 113.188  0.00  0.00    -0.000 A 
ATOM      3  C4   11 d         -10.458 207.654 112.629  0.00  0.00    -0.024 A 
ATOM      4  C5   11 d         -10.925 207.992 111.341  0.00  0.00     0.014 A 
ATOM      5  C6   11 d         -12.030 207.329 110.787  0.00  0.00     0.024 A 
ATOM      6  C7   11 d         -12.676 206.314 111.510  0.00  0.00     0.034 A 
ATOM      7 Cl1   11 d         -14.069 205.463 110.800  0.00  0.00    -0.084 Cl
ATOM      8  C8   11 d         -12.217 205.966 112.788  0.00  0.00     0.024 A 
ATOM      9  C9   11 d         -11.113 206.630 113.345  0.00  0.00     0.014 A 
ATOM     10  C10  11 d          -8.097 208.507 112.435  0.00  0.00     0.065 A 
ATOM     11  S1   11 d          -7.039 209.063 113.327  0.00  0.00    -0.082 SA
ATOM     12  C11  11 d          -7.711 209.190 114.665  0.00  0.00     0.093 A 
ENDROOT
BRANCH  12  13
ATOM     13  N1   11 d          -7.077 209.698 115.899  0.00  0.00    -0.320 N 
ATOM     14  C12  11 d          -5.667 209.900 116.077  0.00  0.00     0.232 C 
ATOM     15  O1   11 d          -4.838 209.643 115.136  0.00  0.00    -0.272 OA
ATOM     16  H6   11 d          -7.712 209.934 116.728  0.00  0.00     0.169 HD
BRANCH  14  17
ATOM     17  C13  11 d          -5.128 210.402 117.383  0.00  0.00     0.182 C 
BRANCH  17  18
ATOM     18  S2   11 d          -4.640 208.997 118.463  0.00  0.00    -0.121 SA
BRANCH  18  19
ATOM     19  C14  11 d          -6.021 209.249 119.604  0.00  0.00     0.001 A 
ATOM     20  C15  11 d          -5.896 210.155 120.671  0.00  0.00     0.018 A 
ATOM     21  C16  11 d          -6.959 210.333 121.570  0.00  0.00     0.001 A 
ATOM     22  C17  11 d          -8.149 209.607 121.403  0.00  0.00     0.000 A 
ATOM     23  C18  11 d          -8.278 208.706 120.335  0.00  0.00     0.001 A 
ATOM     24  C19  11 d          -7.216 208.529 119.434  0.00  0.00     0.018 A 
ENDBRANCH  18  19
ENDBRANCH  17  18
ENDBRANCH  14  17
ENDBRANCH  12  13
BRANCH   1  25
ATOM     25  C1   11 d         -10.082 208.771 115.581  0.00  0.00     0.296 C 
ATOM     26  O2   11 d         -11.063 209.552 115.468  0.00  0.00    -0.259 OA
BRANCH  25  27
ATOM     27  O3   11 d         -10.002 207.901 116.709  0.00  0.00    -0.322 OA
ATOM     28  C20  11 d         -10.812 208.377 117.814  0.00  0.00     0.213 C 
ENDBRANCH  25  27
ENDBRANCH   1  25
TORSDOF 6
ENDMDL
MODEL 12
REMARK VINA RESULT:      -7.2      5.220      8.309
REMARK  6 active torsions:
REMARK  status: ('A' for Active; 'I' for Inactive)
REMARK    1  A    between atoms: C1_1  and  C2_2 
REMARK    2  A    between atoms: C1_1  and  O3_26 
REMARK    3  A    between atoms: C11_13  and  N1_14 
REMARK       I    between atoms: N1_14  and  C12_15 
REMARK    4  A    between atoms: C12_15  and  C13_17 
REMARK    5  A    between atoms: C13_17  and  S2_18 
REMARK    6  A    between atoms: S2_18  and  C14_19 
ROOT
ATOM      1  C2   11 d         -11.636 207.989 116.209  0.00  0.00     0.085 A 
ATOM      2  C3   11 d         -11.229 207.918 117.564  0.00  0.00    -0.000 A 
ATOM      3  C4   11 d          -9.851 208.034 118.105  0.00  0.00    -0.024 A 
ATOM      4  C5   11 d          -9.610 208.745 119.299  0.00  0.00     0.014 A 
ATOM      5  C6   11 d          -8.318 208.806 119.844  0.00  0.00     0.024 A 
ATOM      6  C7   11 d          -7.254 208.151 119.205  0.00  0.00     0.034 A 
ATOM      7 Cl1   11 d          -5.619 208.217 119.904  0.00  0.00    -0.084 Cl
ATOM      8  C8   11 d          -7.483 207.438 118.020  0.00  0.00     0.024 A 
ATOM      9  C9   11 d          -8.774 207.377 117.473  0.00  0.00     0.014 A 
ATOM     10  C10  11 d         -12.320 207.623 118.374  0.00  0.00     0.065 A 
ATOM     11  S1   11 d         -13.518 207.444 117.505  0.00  0.00    -0.082 SA
ATOM     12  C11  11 d         -13.008 207.689 116.113  0.00  0.00     0.093 A 
ENDROOT
BRANCH  12  13
ATOM     13  N1   11 d         -13.817 207.628 114.880  0.00  0.00    -0.320 N 
ATOM     14  C12  11 d         -14.558 206.481 114.437  0.00  0.00     0.232 C 
ATOM     15  O1   11 d         -14.565 205.395 115.115  0.00  0.00    -0.272 OA
ATOM     16  H6   11 d         -13.857 208.503 114.263  0.00  0.00     0.169 HD
BRANCH  14  17
ATOM     17  C13  11 d         -15.332 206.522 113.152  0.00  0.00     0.182 C 
BRANCH  17  18
ATOM     18  S2   11 d         -14.826 205.142 112.049  0.00  0.00    -0.121 SA
BRANCH  18  19
ATOM     19  C14  11 d         -13.733 206.186 111.056  0.00  0.00     0.001 A 
ATOM     20  C15  11 d         -14.232 206.851 109.923  0.00  0.00     0.018 A 
ATOM     21  C16  11 d         -13.377 207.642 109.139  0.00  0.00     0.001 A 
ATOM     22  C17  11 d         -12.024 207.773 109.489  0.00  0.00     0.000 A 
ATOM     23  C18  11 d         -11.526 207.115 110.624  0.00  0.00     0.001 A 
ATOM     24  C19  11 d         -12.380 206.325 111.410  0.00  0.00     0.018 A 
ENDBRANCH  18  19
ENDBRANCH  17  18
ENDBRANCH  14  17
ENDBRANCH  12  13
BRANCH   1  25
ATOM     25  C1   11 d         -10.752 208.370 115.075  0.00  0.00     0.296 C 
ATOM     26  O2   11 d         -10.711 207.642 114.048  0.00  0.00    -0.259 OA
BRANCH  25  27
ATOM     27  O3   11 d          -9.972 209.565 115.121  0.00  0.00    -0.322 OA
ATOM     28  C20  11 d          -8.881 209.532 114.165  0.00  0.00     0.213 C 
ENDBRANCH  25  27
ENDBRANCH   1  25
TORSDOF 6
ENDMDL
MODEL 13
REMARK VINA RESULT:      -7.2      6.032      9.014
REMARK  6 active torsions:
REMARK  status: ('A' for Active; 'I' for Inactive)
REMARK    1  A    between atoms: C1_1  and  C2_2 
REMARK    2  A    between atoms: C1_1  and  O3_26 
REMARK    3  A    between atoms: C11_13  and  N1_14 
REMARK       I    between atoms: N1_14  and  C12_15 
REMARK    4  A    between atoms: C12_15  and  C13_17 
REMARK    5  A    between atoms: C13_17  and  S2_18 
REMARK    6  A    between atoms: S2_18  and  C14_19 
ROOT
ATOM      1  C2   11 d         -11.085 207.866 116.983  0.00  0.00     0.085 A 
ATOM      2  C3   11 d         -11.496 207.960 115.631  0.00  0.00    -0.000 A 
ATOM      3  C4   11 d         -12.753 207.447 115.028  0.00  0.00    -0.024 A 
ATOM      4  C5   11 d         -13.439 208.206 114.056  0.00  0.00     0.014 A 
ATOM      5  C6   11 d         -14.594 207.698 113.442  0.00  0.00     0.024 A 
ATOM      6  C7   11 d         -15.071 206.424 113.784  0.00  0.00     0.034 A 
ATOM      7 Cl1   11 d         -16.527 205.775 112.993  0.00  0.00    -0.084 Cl
ATOM      8  C8   11 d         -14.393 205.659 114.744  0.00  0.00     0.024 A 
ATOM      9  C9   11 d         -13.239 206.166 115.362  0.00  0.00     0.014 A 
ATOM     10  C10  11 d         -10.492 208.544 114.867  0.00  0.00     0.065 A 
ATOM     11  S1   11 d          -9.324 208.818 115.753  0.00  0.00    -0.082 SA
ATOM     12  C11  11 d          -9.770 208.352 117.110  0.00  0.00     0.093 A 
ENDROOT
BRANCH  12  13
ATOM     13  N1   11 d          -8.961 208.408 118.344  0.00  0.00    -0.320 N 
ATOM     14  C12  11 d          -7.644 207.854 118.492  0.00  0.00     0.232 C 
ATOM     15  O1   11 d          -7.065 207.255 117.519  0.00  0.00    -0.272 OA
ATOM     16  H6   11 d          -9.384 208.894 119.199  0.00  0.00     0.169 HD
BRANCH  14  17
ATOM     17  C13  11 d          -6.920 207.949 119.801  0.00  0.00     0.182 C 
BRANCH  17  18
ATOM     18  S2   11 d          -7.973 208.769 121.064  0.00  0.00    -0.121 SA
BRANCH  18  19
ATOM     19  C14  11 d          -6.927 210.243 121.144  0.00  0.00     0.001 A 
ATOM     20  C15  11 d          -6.716 211.020 119.992  0.00  0.00     0.018 A 
ATOM     21  C16  11 d          -5.886 212.150 120.050  0.00  0.00     0.001 A 
ATOM     22  C17  11 d          -5.267 212.506 121.258  0.00  0.00     0.000 A 
ATOM     23  C18  11 d          -5.481 211.735 122.411  0.00  0.00     0.001 A 
ATOM     24  C19  11 d          -6.313 210.605 122.355  0.00  0.00     0.018 A 
ENDBRANCH  18  19
ENDBRANCH  17  18
ENDBRANCH  14  17
ENDBRANCH  12  13
BRANCH   1  25
ATOM     25  C1   11 d         -11.937 207.374 118.099  0.00  0.00     0.296 C 
ATOM     26  O2   11 d         -11.551 206.394 118.789  0.00  0.00    -0.259 OA
BRANCH  25  27
ATOM     27  O3   11 d         -13.171 208.016 118.418  0.00  0.00    -0.322 OA
ATOM     28  C20  11 d         -14.149 207.076 118.933  0.00  0.00     0.213 C 
ENDBRANCH  25  27
ENDBRANCH   1  25
TORSDOF 6
ENDMDL
MODEL 14
REMARK VINA RESULT:      -7.2      2.734      3.352
REMARK  6 active torsions:
REMARK  status: ('A' for Active; 'I' for Inactive)
REMARK    1  A    between atoms: C1_1  and  C2_2 
REMARK    2  A    between atoms: C1_1  and  O3_26 
REMARK    3  A    between atoms: C11_13  and  N1_14 
REMARK       I    between atoms: N1_14  and  C12_15 
REMARK    4  A    between atoms: C12_15  and  C13_17 
REMARK    5  A    between atoms: C13_17  and  S2_18 
REMARK    6  A    between atoms: S2_18  and  C14_19 
ROOT
ATOM      1  C2   11 d         -13.061 206.112 116.689  0.00  0.00     0.085 A 
ATOM      2  C3   11 d         -11.842 206.620 116.176  0.00  0.00    -0.000 A 
ATOM      3  C4   11 d         -11.534 206.992 114.771  0.00  0.00    -0.024 A 
ATOM      4  C5   11 d         -10.763 208.139 114.490  0.00  0.00     0.014 A 
ATOM      5  C6   11 d         -10.420 208.460 113.167  0.00  0.00     0.024 A 
ATOM      6  C7   11 d         -10.836 207.633 112.112  0.00  0.00     0.034 A 
ATOM      7 Cl1   11 d         -10.389 208.033 110.437  0.00  0.00    -0.084 Cl
ATOM      8  C8   11 d         -11.598 206.488 112.382  0.00  0.00     0.024 A 
ATOM      9  C9   11 d         -11.944 206.166 113.703  0.00  0.00     0.014 A 
ATOM     10  C10  11 d         -10.880 206.652 117.179  0.00  0.00     0.065 A 
ATOM     11  S1   11 d         -11.478 206.093 118.425  0.00  0.00    -0.082 SA
ATOM     12  C11  11 d         -12.891 205.757 118.040  0.00  0.00     0.093 A 
ENDROOT
BRANCH  12  13
ATOM     13  N1   11 d         -13.907 205.167 118.935  0.00  0.00    -0.320 N 
ATOM     14  C12  11 d         -14.588 205.872 119.984  0.00  0.00     0.232 C 
ATOM     15  O1   11 d         -14.348 207.108 120.216  0.00  0.00    -0.272 OA
ATOM     16  H6   11 d         -14.158 204.135 118.798  0.00  0.00     0.169 HD
BRANCH  14  17
ATOM     17  C13  11 d         -15.589 205.167 120.851  0.00  0.00     0.182 C 
BRANCH  17  18
ATOM     18  S2   11 d         -14.771 203.861 121.852  0.00  0.00    -0.121 SA
BRANCH  18  19
ATOM     19  C14  11 d         -15.170 204.659 123.426  0.00  0.00     0.001 A 
ATOM     20  C15  11 d         -16.154 204.108 124.265  0.00  0.00     0.018 A 
ATOM     21  C16  11 d         -16.479 204.740 125.475  0.00  0.00     0.001 A 
ATOM     22  C17  11 d         -15.821 205.923 125.849  0.00  0.00     0.000 A 
ATOM     23  C18  11 d         -14.835 206.471 125.015  0.00  0.00     0.001 A 
ATOM     24  C19  11 d         -14.507 205.838 123.806  0.00  0.00     0.018 A 
ENDBRANCH  18  19
ENDBRANCH  17  18
ENDBRANCH  14  17
ENDBRANCH  12  13
BRANCH   1  25
ATOM     25  C1   11 d         -14.333 206.019 115.922  0.00  0.00     0.296 C 
ATOM     26  O2   11 d         -14.917 204.908 115.822  0.00  0.00    -0.259 OA
BRANCH  25  27
ATOM     27  O3   11 d         -14.916 207.176 115.323  0.00  0.00    -0.322 OA
ATOM     28  C20  11 d         -15.447 206.889 114.004  0.00  0.00     0.213 C 
ENDBRANCH  25  27
ENDBRANCH   1  25
TORSDOF 6
ENDMDL
MODEL 15
REMARK VINA RESULT:      -7.0      5.440      7.589
REMARK  6 active torsions:
REMARK  status: ('A' for Active; 'I' for Inactive)
REMARK    1  A    between atoms: C1_1  and  C2_2 
REMARK    2  A    between atoms: C1_1  and  O3_26 
REMARK    3  A    between atoms: C11_13  and  N1_14 
REMARK       I    between atoms: N1_14  and  C12_15 
REMARK    4  A    between atoms: C12_15  and  C13_17 
REMARK    5  A    between atoms: C13_17  and  S2_18 
REMARK    6  A    between atoms: S2_18  and  C14_19 
ROOT
ATOM      1  C2   11 d          -8.138 208.834 115.392  0.00  0.00     0.085 A 
ATOM      2  C3   11 d          -6.732 208.709 115.508  0.00  0.00    -0.000 A 
ATOM      3  C4   11 d          -5.723 208.767 114.420  0.00  0.00    -0.024 A 
ATOM      4  C5   11 d          -4.495 209.433 114.621  0.00  0.00     0.014 A 
ATOM      5  C6   11 d          -3.516 209.439 113.615  0.00  0.00     0.024 A 
ATOM      6  C7   11 d          -3.749 208.773 112.402  0.00  0.00     0.034 A 
ATOM      7 Cl1   11 d          -2.501 208.770 111.134  0.00  0.00    -0.084 Cl
ATOM      8  C8   11 d          -4.964 208.105 112.195  0.00  0.00     0.024 A 
ATOM      9  C9   11 d          -5.945 208.099 113.198  0.00  0.00     0.014 A 
ATOM     10  C10  11 d          -6.387 208.421 116.824  0.00  0.00     0.065 A 
ATOM     11  S1   11 d          -7.639 208.304 117.625  0.00  0.00    -0.082 SA
ATOM     12  C11  11 d          -8.739 208.578 116.639  0.00  0.00     0.093 A 
ENDROOT
BRANCH  12  13
ATOM     13  N1   11 d         -10.184 208.580 116.943  0.00  0.00    -0.320 N 
ATOM     14  C12  11 d         -10.838 207.666 117.836  0.00  0.00     0.232 C 
ATOM     15  O1   11 d         -10.180 206.756 118.451  0.00  0.00    -0.272 OA
ATOM     16  H6   11 d         -10.796 209.315 116.463  0.00  0.00     0.169 HD
BRANCH  14  17
ATOM     17  C13  11 d         -12.320 207.744 118.057  0.00  0.00     0.182 C 
BRANCH  17  18
ATOM     18  S2   11 d         -13.139 206.200 117.489  0.00  0.00    -0.121 SA
BRANCH  18  19
ATOM     19  C14  11 d         -13.199 206.733 115.762  0.00  0.00     0.001 A 
ATOM     20  C15  11 d         -13.781 207.968 115.425  0.00  0.00     0.018 A 
ATOM     21  C16  11 d         -13.847 208.370 114.082  0.00  0.00     0.001 A 
ATOM     22  C17  11 d         -13.330 207.540 113.074  0.00  0.00     0.000 A 
ATOM     23  C18  11 d         -12.743 206.311 113.409  0.00  0.00     0.001 A 
ATOM     24  C19  11 d         -12.674 205.908 114.752  0.00  0.00     0.018 A 
ENDBRANCH  18  19
ENDBRANCH  17  18
ENDBRANCH  14  17
ENDBRANCH  12  13
BRANCH   1  25
ATOM     25  C1   11 d          -8.857 209.225 114.149  0.00  0.00     0.296 C 
ATOM     26  O2   11 d          -8.618 210.342 113.619  0.00  0.00    -0.259 OA
BRANCH  25  27
ATOM     27  O3   11 d          -9.791 208.339 113.531  0.00  0.00    -0.322 OA
ATOM     28  C20  11 d          -9.848 208.534 112.095  0.00  0.00     0.213 C 
ENDBRANCH  25  27
ENDBRANCH   1  25
TORSDOF 6
ENDMDL
MODEL 16
REMARK VINA RESULT:      -7.0      5.309      8.745
REMARK  6 active torsions:
REMARK  status: ('A' for Active; 'I' for Inactive)
REMARK    1  A    between atoms: C1_1  and  C2_2 
REMARK    2  A    between atoms: C1_1  and  O3_26 
REMARK    3  A    between atoms: C11_13  and  N1_14 
REMARK       I    between atoms: N1_14  and  C12_15 
REMARK    4  A    between atoms: C12_15  and  C13_17 
REMARK    5  A    between atoms: C13_17  and  S2_18 
REMARK    6  A    between atoms: S2_18  and  C14_19 
ROOT
ATOM      1  C2   11 d         -11.442 207.299 115.927  0.00  0.00     0.085 A 
ATOM      2  C3   11 d         -11.906 207.648 114.635  0.00  0.00    -0.000 A 
ATOM      3  C4   11 d         -13.163 207.212 113.974  0.00  0.00    -0.024 A 
ATOM      4  C5   11 d         -13.915 208.120 113.200  0.00  0.00     0.014 A 
ATOM      5  C6   11 d         -15.071 207.696 112.527  0.00  0.00     0.024 A 
ATOM      6  C7   11 d         -15.483 206.358 112.612  0.00  0.00     0.034 A 
ATOM      7 Cl1   11 d         -16.941 205.817 111.746  0.00  0.00    -0.084 Cl
ATOM      8  C8   11 d         -14.740 205.445 113.375  0.00  0.00     0.024 A 
ATOM      9  C9   11 d         -13.586 205.868 114.051  0.00  0.00     0.014 A 
ATOM     10  C10  11 d         -10.955 208.422 113.980  0.00  0.00     0.065 A 
ATOM     11  S1   11 d          -9.767 208.563 114.869  0.00  0.00    -0.082 SA
ATOM     12  C11  11 d         -10.143 207.808 116.113  0.00  0.00     0.093 A 
ENDROOT
BRANCH  12  13
ATOM     13  N1   11 d          -9.292 207.648 117.309  0.00  0.00    -0.320 N 
ATOM     14  C12  11 d          -9.541 208.259 118.585  0.00  0.00     0.232 C 
ATOM     15  O1   11 d         -10.561 209.010 118.771  0.00  0.00    -0.272 OA
ATOM     16  H6   11 d          -8.420 207.033 117.225  0.00  0.00     0.169 HD
BRANCH  14  17
ATOM     17  C13  11 d          -8.595 208.045 119.729  0.00  0.00     0.182 C 
BRANCH  17  18
ATOM     18  S2   11 d          -8.483 209.559 120.765  0.00  0.00    -0.121 SA
BRANCH  18  19
ATOM     19  C14  11 d          -6.874 210.037 120.091  0.00  0.00     0.001 A 
ATOM     20  C15  11 d          -6.355 211.318 120.348  0.00  0.00     0.018 A 
ATOM     21  C16  11 d          -5.117 211.696 119.806  0.00  0.00     0.001 A 
ATOM     22  C17  11 d          -4.395 210.795 119.008  0.00  0.00     0.000 A 
ATOM     23  C18  11 d          -4.908 209.514 118.756  0.00  0.00     0.001 A 
ATOM     24  C19  11 d          -6.145 209.133 119.300  0.00  0.00     0.018 A 
ENDBRANCH  18  19
ENDBRANCH  17  18
ENDBRANCH  14  17
ENDBRANCH  12  13
BRANCH   1  25
ATOM     25  C1   11 d         -12.232 206.550 116.940  0.00  0.00     0.296 C 
ATOM     26  O2   11 d         -13.090 207.159 117.632  0.00  0.00    -0.259 OA
BRANCH  25  27
ATOM     27  O3   11 d         -12.053 205.145 117.119  0.00  0.00    -0.322 OA
ATOM     28  C20  11 d         -13.321 204.458 117.279  0.00  0.00     0.213 C 
ENDBRANCH  25  27
ENDBRANCH   1  25
TORSDOF 6
ENDMDL
MODEL 17
REMARK VINA RESULT:      -6.9      6.977     10.487
REMARK  6 active torsions:
REMARK  status: ('A' for Active; 'I' for Inactive)
REMARK    1  A    between atoms: C1_1  and  C2_2 
REMARK    2  A    between atoms: C1_1  and  O3_26 
REMARK    3  A    between atoms: C11_13  and  N1_14 
REMARK       I    between atoms: N1_14  and  C12_15 
REMARK    4  A    between atoms: C12_15  and  C13_17 
REMARK    5  A    between atoms: C13_17  and  S2_18 
REMARK    6  A    between atoms: S2_18  and  C14_19 
ROOT
ATOM      1  C2   11 d          -8.934 208.577 114.487  0.00  0.00     0.085 A 
ATOM      2  C3   11 d          -9.130 208.222 113.130  0.00  0.00    -0.000 A 
ATOM      3  C4   11 d         -10.373 207.712 112.497  0.00  0.00    -0.024 A 
ATOM      4  C5   11 d         -10.750 208.149 111.210  0.00  0.00     0.014 A 
ATOM      5  C6   11 d         -11.891 207.624 110.585  0.00  0.00     0.024 A 
ATOM      6  C7   11 d         -12.664 206.651 111.235  0.00  0.00     0.034 A 
ATOM      7 Cl1   11 d         -14.104 205.975 110.436  0.00  0.00    -0.084 Cl
ATOM      8  C8   11 d         -12.296 206.206 112.513  0.00  0.00     0.024 A 
ATOM      9  C9   11 d         -11.156 206.731 113.140  0.00  0.00     0.014 A 
ATOM     10  C10  11 d          -7.933 208.330 112.431  0.00  0.00     0.065 A 
ATOM     11  S1   11 d          -6.864 208.739 113.387  0.00  0.00    -0.082 SA
ATOM     12  C11  11 d          -7.576 208.877 114.703  0.00  0.00     0.093 A 
ENDROOT
BRANCH  12  13
ATOM     13  N1   11 d          -6.946 209.267 115.981  0.00  0.00    -0.320 N 
ATOM     14  C12  11 d          -6.129 210.432 116.175  0.00  0.00     0.232 C 
ATOM     15  O1   11 d          -5.888 211.239 115.211  0.00  0.00    -0.272 OA
ATOM     16  H6   11 d          -7.106 208.636 116.831  0.00  0.00     0.169 HD
BRANCH  14  17
ATOM     17  C13  11 d          -5.520 210.721 117.515  0.00  0.00     0.182 C 
BRANCH  17  18
ATOM     18  S2   11 d          -5.592 209.234 118.592  0.00  0.00    -0.121 SA
BRANCH  18  19
ATOM     19  C14  11 d          -4.021 208.577 117.982  0.00  0.00     0.001 A 
ATOM     20  C15  11 d          -2.817 209.233 118.291  0.00  0.00     0.018 A 
ATOM     21  C16  11 d          -1.600 208.735 117.797  0.00  0.00     0.001 A 
ATOM     22  C17  11 d          -1.585 207.582 116.998  0.00  0.00     0.000 A 
ATOM     23  C18  11 d          -2.786 206.923 116.694  0.00  0.00     0.001 A 
ATOM     24  C19  11 d          -4.004 207.418 117.188  0.00  0.00     0.018 A 
ENDBRANCH  18  19
ENDBRANCH  17  18
ENDBRANCH  14  17
ENDBRANCH  12  13
BRANCH   1  25
ATOM     25  C1   11 d         -10.012 208.662 115.508  0.00  0.00     0.296 C 
ATOM     26  O2   11 d         -10.972 209.458 115.332  0.00  0.00    -0.259 OA
BRANCH  25  27
ATOM     27  O3   11 d          -9.990 207.834 116.671  0.00  0.00    -0.322 OA
ATOM     28  C20  11 d         -10.517 208.524 117.833  0.00  0.00     0.213 C 
ENDBRANCH  25  27
ENDBRANCH   1  25
TORSDOF 6
ENDMDL
MODEL 18
REMARK VINA RESULT:      -6.8      5.764      8.879
REMARK  6 active torsions:
REMARK  status: ('A' for Active; 'I' for Inactive)
REMARK    1  A    between atoms: C1_1  and  C2_2 
REMARK    2  A    between atoms: C1_1  and  O3_26 
REMARK    3  A    between atoms: C11_13  and  N1_14 
REMARK       I    between atoms: N1_14  and  C12_15 
REMARK    4  A    between atoms: C12_15  and  C13_17 
REMARK    5  A    between atoms: C13_17  and  S2_18 
REMARK    6  A    between atoms: S2_18  and  C14_19 
ROOT
ATOM      1  C2   11 d         -10.005 207.106 118.346  0.00  0.00     0.085 A 
ATOM      2  C3   11 d         -10.023 206.283 119.498  0.00  0.00    -0.000 A 
ATOM      3  C4   11 d          -8.897 205.990 120.422  0.00  0.00    -0.024 A 
ATOM      4  C5   11 d          -9.115 205.920 121.814  0.00  0.00     0.014 A 
ATOM      5  C6   11 d          -8.066 205.586 122.684  0.00  0.00     0.024 A 
ATOM      6  C7   11 d          -6.789 205.308 122.171  0.00  0.00     0.034 A 
ATOM      7 Cl1   11 d          -5.463 204.870 123.273  0.00  0.00    -0.084 Cl
ATOM      8  C8   11 d          -6.563 205.370 120.789  0.00  0.00     0.024 A 
ATOM      9  C9   11 d          -7.610 205.707 119.918  0.00  0.00     0.014 A 
ATOM     10  C10  11 d         -11.266 205.674 119.629  0.00  0.00     0.065 A 
ATOM     11  S1   11 d         -12.114 206.079 118.472  0.00  0.00    -0.082 SA
ATOM     12  C11  11 d         -11.238 207.003 117.675  0.00  0.00     0.093 A 
ENDROOT
BRANCH  12  13
ATOM     13  N1   11 d         -11.622 207.678 116.419  0.00  0.00    -0.320 N 
ATOM     14  C12  11 d         -11.846 207.018 115.164  0.00  0.00     0.232 C 
ATOM     15  O1   11 d         -11.724 205.748 115.053  0.00  0.00    -0.272 OA
ATOM     16  H6   11 d         -11.742 208.742 116.438  0.00  0.00     0.169 HD
BRANCH  14  17
ATOM     17  C13  11 d         -12.213 207.806 113.942  0.00  0.00     0.182 C 
BRANCH  17  18
ATOM     18  S2   11 d         -11.855 206.841 112.419  0.00  0.00    -0.121 SA
BRANCH  18  19
ATOM     19  C14  11 d         -13.597 206.724 111.948  0.00  0.00     0.001 A 
ATOM     20  C15  11 d         -14.557 206.326 112.895  0.00  0.00     0.018 A 
ATOM     21  C16  11 d         -15.906 206.213 112.523  0.00  0.00     0.001 A 
ATOM     22  C17  11 d         -16.297 206.499 111.205  0.00  0.00     0.000 A 
ATOM     23  C18  11 d         -15.341 206.902 110.261  0.00  0.00     0.001 A 
ATOM     24  C19  11 d         -13.992 207.018 110.632  0.00  0.00     0.018 A 
ENDBRANCH  18  19
ENDBRANCH  17  18
ENDBRANCH  14  17
ENDBRANCH  12  13
BRANCH   1  25
ATOM     25  C1   11 d          -8.869 207.978 117.941  0.00  0.00     0.296 C 
ATOM     26  O2   11 d          -8.541 208.047 116.727  0.00  0.00    -0.259 OA
BRANCH  25  27
ATOM     27  O3   11 d          -8.165 208.761 118.905  0.00  0.00    -0.322 OA
ATOM     28  C20  11 d          -6.760 208.892 118.568  0.00  0.00     0.213 C 
ENDBRANCH  25  27
ENDBRANCH   1  25
TORSDOF 6
ENDMDL
MODEL 19
REMARK VINA RESULT:      -6.7      5.120      8.585
REMARK  6 active torsions:
REMARK  status: ('A' for Active; 'I' for Inactive)
REMARK    1  A    between atoms: C1_1  and  C2_2 
REMARK    2  A    between atoms: C1_1  and  O3_26 
REMARK    3  A    between atoms: C11_13  and  N1_14 
REMARK       I    between atoms: N1_14  and  C12_15 
REMARK    4  A    between atoms: C12_15  and  C13_17 
REMARK    5  A    between atoms: C13_17  and  S2_18 
REMARK    6  A    between atoms: S2_18  and  C14_19 
ROOT
ATOM      1  C2   11 d         -11.482 207.832 116.009  0.00  0.00     0.085 A 
ATOM      2  C3   11 d         -12.758 207.224 115.909  0.00  0.00    -0.000 A 
ATOM      3  C4   11 d         -13.567 207.010 114.682  0.00  0.00    -0.024 A 
ATOM      4  C5   11 d         -14.288 205.811 114.503  0.00  0.00     0.014 A 
ATOM      5  C6   11 d         -15.100 205.630 113.373  0.00  0.00     0.024 A 
ATOM      6  C7   11 d         -15.208 206.649 112.414  0.00  0.00     0.034 A 
ATOM      7 Cl1   11 d         -16.250 206.425 110.989  0.00  0.00    -0.084 Cl
ATOM      8  C8   11 d         -14.500 207.847 112.585  0.00  0.00     0.024 A 
ATOM      9  C9   11 d         -13.686 208.029 113.713  0.00  0.00     0.014 A 
ATOM     10  C10  11 d         -13.236 206.908 117.176  0.00  0.00     0.065 A 
ATOM     11  S1   11 d         -12.240 207.371 118.185  0.00  0.00    -0.082 SA
ATOM     12  C11  11 d         -11.130 207.966 117.365  0.00  0.00     0.093 A 
ENDROOT
BRANCH  12  13
ATOM     13  N1   11 d          -9.895 208.570 117.904  0.00  0.00    -0.320 N 
ATOM     14  C12  11 d          -8.943 207.893 118.739  0.00  0.00     0.232 C 
ATOM     15  O1   11 d          -9.114 206.671 119.080  0.00  0.00    -0.272 OA
ATOM     16  H6   11 d          -9.688 209.592 117.659  0.00  0.00     0.169 HD
BRANCH  14  17
ATOM     17  C13  11 d          -7.730 208.611 119.250  0.00  0.00     0.182 C 
BRANCH  17  18
ATOM     18  S2   11 d          -6.475 208.787 117.919  0.00  0.00    -0.121 SA
BRANCH  18  19
ATOM     19  C14  11 d          -5.715 207.183 118.268  0.00  0.00     0.001 A 
ATOM     20  C15  11 d          -5.479 206.790 119.597  0.00  0.00     0.018 A 
ATOM     21  C16  11 d          -4.868 205.556 119.867  0.00  0.00     0.001 A 
ATOM     22  C17  11 d          -4.494 204.711 118.810  0.00  0.00     0.000 A 
ATOM     23  C18  11 d          -4.735 205.099 117.483  0.00  0.00     0.001 A 
ATOM     24  C19  11 d          -5.348 206.333 117.212  0.00  0.00     0.018 A 
ENDBRANCH  18  19
ENDBRANCH  17  18
ENDBRANCH  14  17
ENDBRANCH  12  13
BRANCH   1  25
ATOM     25  C1   11 d         -10.633 208.222 114.851  0.00  0.00     0.296 C 
ATOM     26  O2   11 d         -10.055 209.341 114.854  0.00  0.00    -0.259 OA
BRANCH  25  27
ATOM     27  O3   11 d         -10.440 207.334 113.751  0.00  0.00    -0.322 OA
ATOM     28  C20  11 d         -10.170 208.053 112.520  0.00  0.00     0.213 C 
ENDBRANCH  25  27
ENDBRANCH   1  25
TORSDOF 6
ENDMDL
MODEL 20
REMARK VINA RESULT:      -6.7      4.642      6.724
REMARK  6 active torsions:
REMARK  status: ('A' for Active; 'I' for Inactive)
REMARK    1  A    between atoms: C1_1  and  C2_2 
REMARK    2  A    between atoms: C1_1  and  O3_26 
REMARK    3  A    between atoms: C11_13  and  N1_14 
REMARK       I    between atoms: N1_14  and  C12_15 
REMARK    4  A    between atoms: C12_15  and  C13_17 
REMARK    5  A    between atoms: C13_17  and  S2_18 
REMARK    6  A    between atoms: S2_18  and  C14_19 
ROOT
ATOM      1  C2   11 d         -11.385 207.164 115.960  0.00  0.00     0.085 A 
ATOM      2  C3   11 d         -11.839 207.593 114.689  0.00  0.00    -0.000 A 
ATOM      3  C4   11 d         -13.065 207.161 113.971  0.00  0.00    -0.024 A 
ATOM      4  C5   11 d         -13.838 208.096 113.252  0.00  0.00     0.014 A 
ATOM      5  C6   11 d         -14.964 207.681 112.524  0.00  0.00     0.024 A 
ATOM      6  C7   11 d         -15.325 206.325 112.499  0.00  0.00     0.034 A 
ATOM      7 Cl1   11 d         -16.744 205.797 111.564  0.00  0.00    -0.084 Cl
ATOM      8  C8   11 d         -14.560 205.386 113.206  0.00  0.00     0.024 A 
ATOM      9  C9   11 d         -13.435 205.800 113.936  0.00  0.00     0.014 A 
ATOM     10  C10  11 d         -10.908 208.451 114.114  0.00  0.00     0.065 A 
ATOM     11  S1   11 d          -9.743 208.569 115.037  0.00  0.00    -0.082 SA
ATOM     12  C11  11 d         -10.111 207.707 116.212  0.00  0.00     0.093 A 
ENDROOT
BRANCH  12  13
ATOM     13  N1   11 d          -9.276 207.488 117.410  0.00  0.00    -0.320 N 
ATOM     14  C12  11 d          -9.535 208.046 118.707  0.00  0.00     0.232 C 
ATOM     15  O1   11 d         -10.551 208.797 118.914  0.00  0.00    -0.272 OA
ATOM     16  H6   11 d          -8.408 206.870 117.310  0.00  0.00     0.169 HD
BRANCH  14  17
ATOM     17  C13  11 d          -8.606 207.775 119.853  0.00  0.00     0.182 C 
BRANCH  17  18
ATOM     18  S2   11 d          -7.819 206.125 119.671  0.00  0.00    -0.121 SA
BRANCH  18  19
ATOM     19  C14  11 d          -8.656 205.440 121.121  0.00  0.00     0.001 A 
ATOM     20  C15  11 d         -10.059 205.371 121.157  0.00  0.00     0.018 A 
ATOM     21  C16  11 d         -10.708 204.861 122.292  0.00  0.00     0.001 A 
ATOM     22  C17  11 d          -9.956 204.417 123.391  0.00  0.00     0.000 A 
ATOM     23  C18  11 d          -8.555 204.478 123.354  0.00  0.00     0.001 A 
ATOM     24  C19  11 d          -7.904 204.987 122.218  0.00  0.00     0.018 A 
ENDBRANCH  18  19
ENDBRANCH  17  18
ENDBRANCH  14  17
ENDBRANCH  12  13
BRANCH   1  25
ATOM     25  C1   11 d         -12.163 206.310 116.897  0.00  0.00     0.296 C 
ATOM     26  O2   11 d         -11.968 205.065 116.910  0.00  0.00    -0.259 OA
BRANCH  25  27
ATOM     27  O3   11 d         -13.104 206.883 117.804  0.00  0.00    -0.322 OA
ATOM     28  C20  11 d         -13.741 205.873 118.627  0.00  0.00     0.213 C 
ENDBRANCH  25  27
ENDBRANCH   1  25
TORSDOF 6
ENDMDL
