MODEL 1
REMARK VINA RESULT:      -9.5      0.000      0.000
REMARK  3 active torsions:
REMARK  status: ('A' for Active; 'I' for Inactive)
REMARK    1  A    between atoms: C2_2  and  C3_3 
REMARK       I    between atoms: C3_3  and  N1_5 
REMARK    2  A    between atoms: N1_5  and  C4_6 
REMARK    3  A    between atoms: C4_6  and  C5_7 
ROOT
ATOM      1  C1   11 d         -14.159 205.722 114.928  0.00  0.00     0.271 A 
ATOM      2  C2   11 d         -13.281 205.515 116.021  0.00  0.00     0.117 A 
ATOM      3  C12  11 d         -11.897 205.700 115.797  0.00  0.00     0.142 A 
ATOM      4  N2   11 d         -11.424 206.066 114.571  0.00  0.00    -0.235 NA
ATOM      5  C13  11 d         -12.301 206.253 113.557  0.00  0.00     0.180 A 
ATOM      6  N3   11 d         -13.636 206.095 113.715  0.00  0.00    -0.259 N 
ATOM      7  C14  11 d         -14.287 206.381 112.543  0.00  0.00     0.035 A 
ATOM      8  C15  11 d         -13.353 206.682 111.547  0.00  0.00     0.009 A 
ATOM      9  S1   11 d         -11.983 206.659 112.154  0.00  0.00    -0.054 SA
ATOM     10  C16  11 d         -13.706 207.080 110.141  0.00  0.00     0.048 C 
ATOM     11  C17  11 d         -15.191 207.469 110.038  0.00  0.00     0.006 C 
ATOM     12  C18  11 d         -16.094 206.448 110.756  0.00  0.00     0.006 C 
ATOM     13  C19  11 d         -15.771 206.338 112.261  0.00  0.00     0.059 C 
ATOM     14  O4   11 d         -15.402 205.607 115.078  0.00  0.00    -0.266 OA
ENDROOT
BRANCH   2  15
ATOM     15  C3   11 d         -13.771 205.094 117.361  0.00  0.00     0.258 C 
ATOM     16  O1   11 d         -13.670 205.903 118.352  0.00  0.00    -0.267 OA
ATOM     17  N1   11 d         -14.357 203.809 117.565  0.00  0.00    -0.352 N 
ATOM     18  H1   11 d         -14.432 203.121 116.744  0.00  0.00     0.163 HD
BRANCH  17  19
ATOM     19  C4   11 d         -14.870 203.415 118.910  0.00  0.00     0.161 C 
BRANCH  19  20
ATOM     20  C5   11 d         -16.377 203.354 118.941  0.00  0.00    -0.038 A 
ATOM     21  C6   11 d         -17.091 203.703 120.112  0.00  0.00     0.048 A 
ATOM     22  C7   11 d         -18.488 203.636 120.098  0.00  0.00     0.105 A 
ATOM     23  C8   11 d         -19.172 203.242 118.982  0.00  0.00     0.105 A 
ATOM     24  O3   11 d         -19.349 203.977 121.153  0.00  0.00    -0.323 OA
ATOM     25  O2   11 d         -20.561 203.275 119.171  0.00  0.00    -0.323 OA
ATOM     26  C10  11 d         -18.502 202.899 117.803  0.00  0.00     0.040 A 
ATOM     27  C9   11 d         -20.662 203.794 120.534  0.00  0.00     0.352 A 
ATOM     28  C11  11 d         -17.095 202.956 117.785  0.00  0.00     0.012 A 
ENDBRANCH  19  20
ENDBRANCH  17  19
ENDBRANCH   2  15
TORSDOF 3
ENDMDL
MODEL 2
REMARK VINA RESULT:      -9.4      5.826     10.266
REMARK  3 active torsions:
REMARK  status: ('A' for Active; 'I' for Inactive)
REMARK    1  A    between atoms: C2_2  and  C3_3 
REMARK       I    between atoms: C3_3  and  N1_5 
REMARK    2  A    between atoms: N1_5  and  C4_6 
REMARK    3  A    between atoms: C4_6  and  C5_7 
ROOT
ATOM      1  C1   11 d         -11.410 207.824 114.000  0.00  0.00     0.271 A 
ATOM      2  C2   11 d         -10.965 208.148 115.306  0.00  0.00     0.117 A 
ATOM      3  C12  11 d         -11.886 208.007 116.368  0.00  0.00     0.142 A 
ATOM      4  N2   11 d         -13.160 207.574 116.144  0.00  0.00    -0.235 NA
ATOM      5  C13  11 d         -13.540 207.277 114.879  0.00  0.00     0.180 A 
ATOM      6  N3   11 d         -12.699 207.389 113.824  0.00  0.00    -0.259 N 
ATOM      7  C14  11 d         -13.330 206.991 112.674  0.00  0.00     0.035 A 
ATOM      8  C15  11 d         -14.658 206.660 112.955  0.00  0.00     0.009 A 
ATOM      9  S1   11 d         -14.880 206.786 114.432  0.00  0.00    -0.054 SA
ATOM     10  C16  11 d         -15.642 206.147 111.940  0.00  0.00     0.048 C 
ATOM     11  C17  11 d         -14.920 205.688 110.662  0.00  0.00     0.006 C 
ATOM     12  C18  11 d         -13.869 206.718 110.205  0.00  0.00     0.006 C 
ATOM     13  C19  11 d         -12.776 206.950 111.269  0.00  0.00     0.059 C 
ATOM     14  O4   11 d         -10.622 207.897 113.021  0.00  0.00    -0.266 OA
ENDROOT
BRANCH   2  15
ATOM     15  C3   11 d          -9.587 208.643 115.572  0.00  0.00     0.258 C 
ATOM     16  O1   11 d          -9.018 208.353 116.685  0.00  0.00    -0.267 OA
ATOM     17  N1   11 d          -8.884 209.429 114.612  0.00  0.00    -0.352 N 
ATOM     18  H1   11 d          -9.358 209.687 113.684  0.00  0.00     0.163 HD
BRANCH  17  19
ATOM     19  C4   11 d          -7.491 209.891 114.884  0.00  0.00     0.161 C 
BRANCH  19  20
ATOM     20  C5   11 d          -6.512 209.356 113.869  0.00  0.00    -0.038 A 
ATOM     21  C6   11 d          -5.118 209.522 114.052  0.00  0.00     0.048 A 
ATOM     22  C7   11 d          -4.244 209.007 113.088  0.00  0.00     0.105 A 
ATOM     23  C8   11 d          -4.707 208.351 111.982  0.00  0.00     0.105 A 
ATOM     24  O3   11 d          -2.842 209.052 113.128  0.00  0.00    -0.323 OA
ATOM     25  O2   11 d          -3.667 207.890 111.163  0.00  0.00    -0.323 OA
ATOM     26  C10  11 d          -6.077 208.159 111.772  0.00  0.00     0.040 A 
ATOM     27  C9   11 d          -2.488 208.293 111.928  0.00  0.00     0.352 A 
ATOM     28  C11  11 d          -6.983 208.666 112.724  0.00  0.00     0.012 A 
ENDBRANCH  19  20
ENDBRANCH  17  19
ENDBRANCH   2  15
TORSDOF 3
ENDMDL
MODEL 3
REMARK VINA RESULT:      -9.4      5.915      9.893
REMARK  3 active torsions:
REMARK  status: ('A' for Active; 'I' for Inactive)
REMARK    1  A    between atoms: C2_2  and  C3_3 
REMARK       I    between atoms: C3_3  and  N1_5 
REMARK    2  A    between atoms: N1_5  and  C4_6 
REMARK    3  A    between atoms: C4_6  and  C5_7 
ROOT
ATOM      1  C1   11 d         -11.252 207.918 112.936  0.00  0.00     0.271 A 
ATOM      2  C2   11 d         -10.353 208.408 113.916  0.00  0.00     0.117 A 
ATOM      3  C12  11 d         -10.789 208.421 115.260  0.00  0.00     0.142 A 
ATOM      4  N2   11 d         -12.033 207.978 115.603  0.00  0.00    -0.235 NA
ATOM      5  C13  11 d         -12.857 207.519 114.632  0.00  0.00     0.180 A 
ATOM      6  N3   11 d         -12.491 207.478 113.329  0.00  0.00    -0.259 N 
ATOM      7  C14  11 d         -13.498 206.938 112.573  0.00  0.00     0.035 A 
ATOM      8  C15  11 d         -14.602 206.663 113.385  0.00  0.00     0.009 A 
ATOM      9  S1   11 d         -14.244 206.989 114.804  0.00  0.00    -0.054 SA
ATOM     10  C16  11 d         -15.878 206.032 112.903  0.00  0.00     0.048 C 
ATOM     11  C17  11 d         -15.685 205.397 111.515  0.00  0.00     0.006 C 
ATOM     12  C18  11 d         -14.933 206.344 110.560  0.00  0.00     0.006 C 
ATOM     13  C19  11 d         -13.525 206.702 111.080  0.00  0.00     0.059 C 
ATOM     14  O4   11 d         -10.904 207.849 111.729  0.00  0.00    -0.266 OA
ENDROOT
BRANCH   2  15
ATOM     15  C3   11 d          -8.999 208.917 113.564  0.00  0.00     0.258 C 
ATOM     16  O1   11 d          -8.852 210.153 113.252  0.00  0.00    -0.267 OA
ATOM     17  N1   11 d          -7.860 208.058 113.573  0.00  0.00    -0.352 N 
ATOM     18  H1   11 d          -7.977 207.020 113.819  0.00  0.00     0.163 HD
BRANCH  17  19
ATOM     19  C4   11 d          -6.506 208.594 113.246  0.00  0.00     0.161 C 
BRANCH  19  20
ATOM     20  C5   11 d          -5.677 208.820 114.486  0.00  0.00    -0.038 A 
ATOM     21  C6   11 d          -6.075 209.769 115.458  0.00  0.00     0.048 A 
ATOM     22  C7   11 d          -5.279 209.947 116.595  0.00  0.00     0.105 A 
ATOM     23  C8   11 d          -4.134 209.226 116.784  0.00  0.00     0.105 A 
ATOM     24  O3   11 d          -5.542 210.814 117.667  0.00  0.00    -0.323 OA
ATOM     25  O2   11 d          -3.506 209.535 117.999  0.00  0.00    -0.323 OA
ATOM     26  C10  11 d          -3.713 208.273 115.851  0.00  0.00     0.040 A 
ATOM     27  C9   11 d          -4.437 210.504 118.575  0.00  0.00     0.352 A 
ATOM     28  C11  11 d          -4.492 208.070 114.695  0.00  0.00     0.012 A 
ENDBRANCH  19  20
ENDBRANCH  17  19
ENDBRANCH   2  15
TORSDOF 3
ENDMDL
MODEL 4
REMARK VINA RESULT:      -9.4      6.011     10.031
REMARK  3 active torsions:
REMARK  status: ('A' for Active; 'I' for Inactive)
REMARK    1  A    between atoms: C2_2  and  C3_3 
REMARK       I    between atoms: C3_3  and  N1_5 
REMARK    2  A    between atoms: N1_5  and  C4_6 
REMARK    3  A    between atoms: C4_6  and  C5_7 
ROOT
ATOM      1  C1   11 d         -10.992 207.932 113.048  0.00  0.00     0.271 A 
ATOM      2  C2   11 d         -10.168 208.423 114.091  0.00  0.00     0.117 A 
ATOM      3  C12  11 d         -10.666 208.354 115.412  0.00  0.00     0.142 A 
ATOM      4  N2   11 d         -11.899 207.831 115.673  0.00  0.00    -0.235 NA
ATOM      5  C13  11 d         -12.651 207.374 114.644  0.00  0.00     0.180 A 
ATOM      6  N3   11 d         -12.222 207.411 113.360  0.00  0.00    -0.259 N 
ATOM      7  C14  11 d         -13.162 206.854 112.533  0.00  0.00     0.035 A 
ATOM      8  C15  11 d         -14.286 206.485 113.278  0.00  0.00     0.009 A 
ATOM      9  S1   11 d         -14.014 206.765 114.725  0.00  0.00    -0.054 SA
ATOM     10  C16  11 d         -15.502 205.810 112.707  0.00  0.00     0.048 C 
ATOM     11  C17  11 d         -15.210 205.249 111.305  0.00  0.00     0.006 C 
ATOM     12  C18  11 d         -14.466 206.275 110.430  0.00  0.00     0.006 C 
ATOM     13  C19  11 d         -13.106 206.683 111.033  0.00  0.00     0.059 C 
ATOM     14  O4   11 d         -10.584 207.935 111.858  0.00  0.00    -0.266 OA
ENDROOT
BRANCH   2  15
ATOM     15  C3   11 d          -8.829 209.018 113.828  0.00  0.00     0.258 C 
ATOM     16  O1   11 d          -8.600 210.233 114.171  0.00  0.00    -0.267 OA
ATOM     17  N1   11 d          -7.792 208.261 113.207  0.00  0.00    -0.352 N 
ATOM     18  H1   11 d          -7.979 207.247 112.904  0.00  0.00     0.163 HD
BRANCH  17  19
ATOM     19  C4   11 d          -6.446 208.864 112.978  0.00  0.00     0.161 C 
BRANCH  19  20
ATOM     20  C5   11 d          -5.361 208.111 113.707  0.00  0.00    -0.038 A 
ATOM     21  C6   11 d          -5.570 207.638 115.025  0.00  0.00     0.048 A 
ATOM     22  C7   11 d          -4.539 206.941 115.664  0.00  0.00     0.105 A 
ATOM     23  C8   11 d          -3.343 206.709 115.045  0.00  0.00     0.105 A 
ATOM     24  O3   11 d          -4.588 206.376 116.948  0.00  0.00    -0.323 OA
ATOM     25  O2   11 d          -2.463 205.969 115.847  0.00  0.00    -0.323 OA
ATOM     26  C10  11 d          -3.103 207.153 113.740  0.00  0.00     0.040 A 
ATOM     27  C9   11 d          -3.284 205.717 117.030  0.00  0.00     0.352 A 
ATOM     28  C11  11 d          -4.120 207.858 113.069  0.00  0.00     0.012 A 
ENDBRANCH  19  20
ENDBRANCH  17  19
ENDBRANCH   2  15
TORSDOF 3
ENDMDL
MODEL 5
REMARK VINA RESULT:      -9.3      6.414     10.850
REMARK  3 active torsions:
REMARK  status: ('A' for Active; 'I' for Inactive)
REMARK    1  A    between atoms: C2_2  and  C3_3 
REMARK       I    between atoms: C3_3  and  N1_5 
REMARK    2  A    between atoms: N1_5  and  C4_6 
REMARK    3  A    between atoms: C4_6  and  C5_7 
ROOT
ATOM      1  C1   11 d         -11.081 207.877 113.530  0.00  0.00     0.271 A 
ATOM      2  C2   11 d          -9.959 208.379 112.825  0.00  0.00     0.117 A 
ATOM      3  C12  11 d          -9.948 208.238 111.419  0.00  0.00     0.142 A 
ATOM      4  N2   11 d         -10.983 207.640 110.762  0.00  0.00    -0.235 NA
ATOM      5  C13  11 d         -12.035 207.175 111.478  0.00  0.00     0.180 A 
ATOM      6  N3   11 d         -12.100 207.286 112.826  0.00  0.00    -0.259 N 
ATOM      7  C14  11 d         -13.283 206.767 113.284  0.00  0.00     0.035 A 
ATOM      8  C15  11 d         -14.010 206.234 112.216  0.00  0.00     0.009 A 
ATOM      9  S1   11 d         -13.258 206.499 110.947  0.00  0.00    -0.054 SA
ATOM     10  C16  11 d         -15.373 205.612 112.339  0.00  0.00     0.048 C 
ATOM     11  C17  11 d         -16.015 205.964 113.692  0.00  0.00     0.006 C 
ATOM     12  C18  11 d         -15.021 205.780 114.855  0.00  0.00     0.006 C 
ATOM     13  C19  11 d         -13.778 206.682 114.710  0.00  0.00     0.059 C 
ATOM     14  O4   11 d         -11.161 208.007 114.778  0.00  0.00    -0.266 OA
ENDROOT
BRANCH   2  15
ATOM     15  C3   11 d          -8.808 209.016 113.521  0.00  0.00     0.258 C 
ATOM     16  O1   11 d          -8.545 210.252 113.302  0.00  0.00    -0.267 OA
ATOM     17  N1   11 d          -7.994 208.280 114.432  0.00  0.00    -0.352 N 
ATOM     18  H1   11 d          -8.199 207.241 114.611  0.00  0.00     0.163 HD
BRANCH  17  19
ATOM     19  C4   11 d          -6.862 208.944 115.144  0.00  0.00     0.161 C 
BRANCH  19  20
ATOM     20  C5   11 d          -5.529 208.594 114.528  0.00  0.00    -0.038 A 
ATOM     21  C6   11 d          -4.864 209.508 113.678  0.00  0.00     0.048 A 
ATOM     22  C7   11 d          -3.628 209.146 113.130  0.00  0.00     0.105 A 
ATOM     23  C8   11 d          -3.056 207.935 113.400  0.00  0.00     0.105 A 
ATOM     24  O3   11 d          -2.821 209.939 112.300  0.00  0.00    -0.323 OA
ATOM     25  O2   11 d          -1.808 207.786 112.779  0.00  0.00    -0.323 OA
ATOM     26  C10  11 d          -3.678 207.009 114.244  0.00  0.00     0.040 A 
ATOM     27  C9   11 d          -1.646 209.085 112.128  0.00  0.00     0.352 A 
ATOM     28  C11  11 d          -4.923 207.343 114.811  0.00  0.00     0.012 A 
ENDBRANCH  19  20
ENDBRANCH  17  19
ENDBRANCH   2  15
TORSDOF 3
ENDMDL
MODEL 6
REMARK VINA RESULT:      -9.2      1.724      2.225
REMARK  3 active torsions:
REMARK  status: ('A' for Active; 'I' for Inactive)
REMARK    1  A    between atoms: C2_2  and  C3_3 
REMARK       I    between atoms: C3_3  and  N1_5 
REMARK    2  A    between atoms: N1_5  and  C4_6 
REMARK    3  A    between atoms: C4_6  and  C5_7 
ROOT
ATOM      1  C1   11 d         -13.747 206.524 115.484  0.00  0.00     0.271 A 
ATOM      2  C2   11 d         -12.653 206.762 116.351  0.00  0.00     0.117 A 
ATOM      3  C12  11 d         -11.396 207.039 115.765  0.00  0.00     0.142 A 
ATOM      4  N2   11 d         -11.244 207.075 114.410  0.00  0.00    -0.235 NA
ATOM      5  C13  11 d         -12.319 206.841 113.621  0.00  0.00     0.180 A 
ATOM      6  N3   11 d         -13.546 206.576 114.127  0.00  0.00    -0.259 N 
ATOM      7  C14  11 d         -14.451 206.415 113.111  0.00  0.00     0.035 A 
ATOM      8  C15  11 d         -13.798 206.515 111.879  0.00  0.00     0.009 A 
ATOM      9  S1   11 d         -12.357 206.841 112.126  0.00  0.00    -0.054 SA
ATOM     10  C16  11 d         -14.483 206.426 110.543  0.00  0.00     0.048 C 
ATOM     11  C17  11 d         -16.005 206.583 110.696  0.00  0.00     0.006 C 
ATOM     12  C18  11 d         -16.549 205.723 111.853  0.00  0.00     0.006 C 
ATOM     13  C19  11 d         -15.928 206.110 113.211  0.00  0.00     0.059 C 
ATOM     14  O4   11 d         -14.896 206.309 115.950  0.00  0.00    -0.266 OA
ENDROOT
BRANCH   2  15
ATOM     15  C3   11 d         -12.790 206.707 117.833  0.00  0.00     0.258 C 
ATOM     16  O1   11 d         -12.461 207.729 118.534  0.00  0.00    -0.267 OA
ATOM     17  N1   11 d         -13.285 205.540 118.486  0.00  0.00    -0.352 N 
ATOM     18  H1   11 d         -13.549 204.675 117.908  0.00  0.00     0.163 HD
BRANCH  17  19
ATOM     19  C4   11 d         -13.443 205.513 119.971  0.00  0.00     0.161 C 
BRANCH  19  20
ATOM     20  C5   11 d         -14.895 205.454 120.380  0.00  0.00    -0.038 A 
ATOM     21  C6   11 d         -15.603 204.230 120.354  0.00  0.00     0.048 A 
ATOM     22  C7   11 d         -16.947 204.218 120.744  0.00  0.00     0.105 A 
ATOM     23  C8   11 d         -17.582 205.358 121.148  0.00  0.00     0.105 A 
ATOM     24  O3   11 d         -17.784 203.093 120.812  0.00  0.00    -0.323 OA
ATOM     25  O2   11 d         -18.912 205.121 121.525  0.00  0.00    -0.323 OA
ATOM     26  C10  11 d         -16.912 206.585 121.196  0.00  0.00     0.040 A 
ATOM     27  C9   11 d         -19.011 203.672 121.359  0.00  0.00     0.352 A 
ATOM     28  C11  11 d         -15.559 206.630 120.809  0.00  0.00     0.012 A 
ENDBRANCH  19  20
ENDBRANCH  17  19
ENDBRANCH   2  15
TORSDOF 3
ENDMDL
MODEL 7
REMARK VINA RESULT:      -8.8      3.490      8.750
REMARK  3 active torsions:
REMARK  status: ('A' for Active; 'I' for Inactive)
REMARK    1  A    between atoms: C2_2  and  C3_3 
REMARK       I    between atoms: C3_3  and  N1_5 
REMARK    2  A    between atoms: N1_5  and  C4_6 
REMARK    3  A    between atoms: C4_6  and  C5_7 
ROOT
ATOM      1  C1   11 d         -13.940 205.547 119.010  0.00  0.00     0.271 A 
ATOM      2  C2   11 d         -13.827 205.108 117.668  0.00  0.00     0.117 A 
ATOM      3  C12  11 d         -14.572 203.970 117.283  0.00  0.00     0.142 A 
ATOM      4  N2   11 d         -15.373 203.317 118.173  0.00  0.00    -0.235 NA
ATOM      5  C13  11 d         -15.449 203.773 119.446  0.00  0.00     0.180 A 
ATOM      6  N3   11 d         -14.762 204.860 119.869  0.00  0.00    -0.259 N 
ATOM      7  C14  11 d         -15.051 205.118 121.183  0.00  0.00     0.035 A 
ATOM      8  C15  11 d         -15.913 204.136 121.678  0.00  0.00     0.009 A 
ATOM      9  S1   11 d         -16.268 203.204 120.560  0.00  0.00    -0.054 SA
ATOM     10  C16  11 d         -16.471 204.117 123.074  0.00  0.00     0.048 C 
ATOM     11  C17  11 d         -16.279 205.481 123.759  0.00  0.00     0.006 C 
ATOM     12  C18  11 d         -14.852 206.022 123.551  0.00  0.00     0.006 C 
ATOM     13  C19  11 d         -14.516 206.228 122.059  0.00  0.00     0.059 C 
ATOM     14  O4   11 d         -13.328 206.575 119.399  0.00  0.00    -0.266 OA
ENDROOT
BRANCH   2  15
ATOM     15  C3   11 d         -12.943 205.790 116.683  0.00  0.00     0.258 C 
ATOM     16  O1   11 d         -11.941 205.158 116.192  0.00  0.00    -0.267 OA
ATOM     17  N1   11 d         -13.194 207.133 116.271  0.00  0.00    -0.352 N 
ATOM     18  H1   11 d         -14.023 207.673 116.688  0.00  0.00     0.163 HD
BRANCH  17  19
ATOM     19  C4   11 d         -12.314 207.791 115.261  0.00  0.00     0.161 C 
BRANCH  19  20
ATOM     20  C5   11 d         -12.724 207.449 113.850  0.00  0.00    -0.038 A 
ATOM     21  C6   11 d         -14.072 207.580 113.437  0.00  0.00     0.048 A 
ATOM     22  C7   11 d         -14.410 207.255 112.119  0.00  0.00     0.105 A 
ATOM     23  C8   11 d         -13.470 206.817 111.229  0.00  0.00     0.105 A 
ATOM     24  O3   11 d         -15.682 207.359 111.536  0.00  0.00    -0.323 OA
ATOM     25  O2   11 d         -14.012 206.577 109.958  0.00  0.00    -0.323 OA
ATOM     26  C10  11 d         -12.127 206.683 111.597  0.00  0.00     0.040 A 
ATOM     27  C9   11 d         -15.405 206.977 110.152  0.00  0.00     0.352 A 
ATOM     28  C11  11 d         -11.755 207.002 112.917  0.00  0.00     0.012 A 
ENDBRANCH  19  20
ENDBRANCH  17  19
ENDBRANCH   2  15
TORSDOF 3
ENDMDL
MODEL 8
REMARK VINA RESULT:      -8.8      5.323      9.558
REMARK  3 active torsions:
REMARK  status: ('A' for Active; 'I' for Inactive)
REMARK    1  A    between atoms: C2_2  and  C3_3 
REMARK       I    between atoms: C3_3  and  N1_5 
REMARK    2  A    between atoms: N1_5  and  C4_6 
REMARK    3  A    between atoms: C4_6  and  C5_7 
ROOT
ATOM      1  C1   11 d         -11.857 207.297 115.101  0.00  0.00     0.271 A 
ATOM      2  C2   11 d         -11.678 207.491 116.493  0.00  0.00     0.117 A 
ATOM      3  C12  11 d         -12.743 207.131 117.350  0.00  0.00     0.142 A 
ATOM      4  N2   11 d         -13.904 206.615 116.853  0.00  0.00    -0.235 NA
ATOM      5  C13  11 d         -14.029 206.448 115.515  0.00  0.00     0.180 A 
ATOM      6  N3   11 d         -13.040 206.770 114.648  0.00  0.00    -0.259 N 
ATOM      7  C14  11 d         -13.419 206.467 113.367  0.00  0.00     0.035 A 
ATOM      8  C15  11 d         -14.730 205.980 113.365  0.00  0.00     0.009 A 
ATOM      9  S1   11 d         -15.210 205.896 114.782  0.00  0.00    -0.054 SA
ATOM     10  C16  11 d         -15.463 205.513 112.139  0.00  0.00     0.048 C 
ATOM     11  C17  11 d         -14.489 205.289 110.970  0.00  0.00     0.006 C 
ATOM     12  C18  11 d         -13.500 206.462 110.826  0.00  0.00     0.006 C 
ATOM     13  C19  11 d         -12.635 206.656 112.089  0.00  0.00     0.059 C 
ATOM     14  O4   11 d         -10.929 207.566 114.295  0.00  0.00    -0.266 OA
ENDROOT
BRANCH   2  15
ATOM     15  C3   11 d         -10.429 208.073 117.058  0.00  0.00     0.258 C 
ATOM     16  O1   11 d         -10.493 208.793 118.117  0.00  0.00    -0.267 OA
ATOM     17  N1   11 d          -9.162 207.839 116.446  0.00  0.00    -0.352 N 
ATOM     18  H1   11 d          -9.102 207.249 115.551  0.00  0.00     0.163 HD
BRANCH  17  19
ATOM     19  C4   11 d          -7.917 208.406 117.043  0.00  0.00     0.161 C 
BRANCH  19  20
ATOM     20  C5   11 d          -6.841 208.617 116.005  0.00  0.00    -0.038 A 
ATOM     21  C6   11 d          -5.774 207.697 115.875  0.00  0.00     0.048 A 
ATOM     22  C7   11 d          -4.799 207.927 114.898  0.00  0.00     0.105 A 
ATOM     23  C8   11 d          -4.859 209.015 114.073  0.00  0.00     0.105 A 
ATOM     24  O3   11 d          -3.699 207.104 114.611  0.00  0.00    -0.323 OA
ATOM     25  O2   11 d          -3.804 209.039 113.149  0.00  0.00    -0.323 OA
ATOM     26  C10  11 d          -5.903 209.941 114.166  0.00  0.00     0.040 A 
ATOM     27  C9   11 d          -3.106 207.794 113.464  0.00  0.00     0.352 A 
ATOM     28  C11  11 d          -6.900 209.737 115.139  0.00  0.00     0.012 A 
ENDBRANCH  19  20
ENDBRANCH  17  19
ENDBRANCH   2  15
TORSDOF 3
ENDMDL
MODEL 9
REMARK VINA RESULT:      -8.5      5.729      9.972
REMARK  3 active torsions:
REMARK  status: ('A' for Active; 'I' for Inactive)
REMARK    1  A    between atoms: C2_2  and  C3_3 
REMARK       I    between atoms: C3_3  and  N1_5 
REMARK    2  A    between atoms: N1_5  and  C4_6 
REMARK    3  A    between atoms: C4_6  and  C5_7 
ROOT
ATOM      1  C1   11 d         -10.889 207.799 113.378  0.00  0.00     0.271 A 
ATOM      2  C2   11 d          -9.841 208.308 112.572  0.00  0.00     0.117 A 
ATOM      3  C12  11 d          -9.975 208.192 111.169  0.00  0.00     0.142 A 
ATOM      4  N2   11 d         -11.075 207.610 110.611  0.00  0.00    -0.235 NA
ATOM      5  C13  11 d         -12.051 207.138 111.423  0.00  0.00     0.180 A 
ATOM      6  N3   11 d         -11.979 207.226 112.772  0.00  0.00    -0.259 N 
ATOM      7  C14  11 d         -13.112 206.705 113.340  0.00  0.00     0.035 A 
ATOM      8  C15  11 d         -13.947 206.194 112.342  0.00  0.00     0.009 A 
ATOM      9  S1   11 d         -13.327 206.477 111.008  0.00  0.00    -0.054 SA
ATOM     10  C16  11 d         -15.294 205.577 112.594  0.00  0.00     0.048 C 
ATOM     11  C17  11 d         -15.794 205.908 114.010  0.00  0.00     0.006 C 
ATOM     12  C18  11 d         -14.688 205.700 115.062  0.00  0.00     0.006 C 
ATOM     13  C19  11 d         -13.459 206.598 114.807  0.00  0.00     0.059 C 
ATOM     14  O4   11 d         -10.840 207.908 114.630  0.00  0.00    -0.266 OA
ENDROOT
BRANCH   2  15
ATOM     15  C3   11 d          -8.621 208.928 113.157  0.00  0.00     0.258 C 
ATOM     16  O1   11 d          -8.672 210.136 113.585  0.00  0.00    -0.267 OA
ATOM     17  N1   11 d          -7.398 208.202 113.257  0.00  0.00    -0.352 N 
ATOM     18  H1   11 d          -7.343 207.194 112.888  0.00  0.00     0.163 HD
BRANCH  17  19
ATOM     19  C4   11 d          -6.192 208.830 113.874  0.00  0.00     0.161 C 
BRANCH  19  20
ATOM     20  C5   11 d          -5.528 207.911 114.870  0.00  0.00    -0.038 A 
ATOM     21  C6   11 d          -4.335 207.226 114.537  0.00  0.00     0.048 A 
ATOM     22  C7   11 d          -3.749 206.387 115.491  0.00  0.00     0.105 A 
ATOM     23  C8   11 d          -4.303 206.218 116.729  0.00  0.00     0.105 A 
ATOM     24  O3   11 d          -2.555 205.664 115.342  0.00  0.00    -0.323 OA
ATOM     25  O2   11 d          -3.543 205.362 117.539  0.00  0.00    -0.323 OA
ATOM     26  C10  11 d          -5.476 206.885 117.097  0.00  0.00     0.040 A 
ATOM     27  C9   11 d          -2.409 205.060 116.667  0.00  0.00     0.352 A 
ATOM     28  C11  11 d          -6.090 207.737 116.160  0.00  0.00     0.012 A 
ENDBRANCH  19  20
ENDBRANCH  17  19
ENDBRANCH   2  15
TORSDOF 3
ENDMDL
MODEL 10
REMARK VINA RESULT:      -8.5      5.044      7.557
REMARK  3 active torsions:
REMARK  status: ('A' for Active; 'I' for Inactive)
REMARK    1  A    between atoms: C2_2  and  C3_3 
REMARK       I    between atoms: C3_3  and  N1_5 
REMARK    2  A    between atoms: N1_5  and  C4_6 
REMARK    3  A    between atoms: C4_6  and  C5_7 
ROOT
ATOM      1  C1   11 d         -12.389 207.675 114.255  0.00  0.00     0.271 A 
ATOM      2  C2   11 d         -11.026 208.053 114.341  0.00  0.00     0.117 A 
ATOM      3  C12  11 d         -10.247 207.983 113.164  0.00  0.00     0.142 A 
ATOM      4  N2   11 d         -10.790 207.565 111.984  0.00  0.00    -0.235 NA
ATOM      5  C13  11 d         -12.097 207.213 111.949  0.00  0.00     0.180 A 
ATOM      6  N3   11 d         -12.891 207.266 113.045  0.00  0.00    -0.259 N 
ATOM      7  C14  11 d         -14.168 206.891 112.719  0.00  0.00     0.035 A 
ATOM      8  C15  11 d         -14.221 206.516 111.373  0.00  0.00     0.009 A 
ATOM      9  S1   11 d         -12.871 206.739 110.762  0.00  0.00    -0.054 SA
ATOM     10  C16  11 d         -15.470 206.081 110.659  0.00  0.00     0.048 C 
ATOM     11  C17  11 d         -16.723 206.450 111.472  0.00  0.00     0.006 C 
ATOM     12  C18  11 d         -16.564 206.075 112.957  0.00  0.00     0.006 C 
ATOM     13  C19  11 d         -15.377 206.804 113.621  0.00  0.00     0.059 C 
ATOM     14  O4   11 d         -13.138 207.752 115.262  0.00  0.00    -0.266 OA
ENDROOT
BRANCH   2  15
ATOM     15  C3   11 d         -10.406 208.492 115.622  0.00  0.00     0.258 C 
ATOM     16  O1   11 d          -9.461 209.358 115.600  0.00  0.00    -0.267 OA
ATOM     17  N1   11 d         -10.848 207.971 116.874  0.00  0.00    -0.352 N 
ATOM     18  H1   11 d         -11.630 207.235 116.900  0.00  0.00     0.163 HD
BRANCH  17  19
ATOM     19  C4   11 d         -10.235 208.444 118.150  0.00  0.00     0.161 C 
BRANCH  19  20
ATOM     20  C5   11 d          -9.176 207.494 118.652  0.00  0.00    -0.038 A 
ATOM     21  C6   11 d          -7.908 207.430 118.026  0.00  0.00     0.048 A 
ATOM     22  C7   11 d          -6.953 206.537 118.524  0.00  0.00     0.105 A 
ATOM     23  C8   11 d          -7.219 205.732 119.596  0.00  0.00     0.105 A 
ATOM     24  O3   11 d          -5.643 206.371 118.050  0.00  0.00    -0.323 OA
ATOM     25  O2   11 d          -6.119 204.939 119.951  0.00  0.00    -0.323 OA
ATOM     26  C10  11 d          -8.457 205.773 120.245  0.00  0.00     0.040 A 
ATOM     27  C9   11 d          -5.108 205.392 118.997  0.00  0.00     0.352 A 
ATOM     28  C11  11 d          -9.440 206.662 119.768  0.00  0.00     0.012 A 
ENDBRANCH  19  20
ENDBRANCH  17  19
ENDBRANCH   2  15
TORSDOF 3
ENDMDL
