MODEL 1
REMARK VINA RESULT:      -9.7      0.000      0.000
REMARK  5 active torsions:
REMARK  status: ('A' for Active; 'I' for Inactive)
REMARK    1  A    between atoms: N1_9  and  C15_18 
REMARK    2  A    between atoms: C15_18  and  C16_19 
REMARK    3  A    between atoms: C16_19  and  O2_21 
REMARK    4  A    between atoms: O2_21  and  C17_22 
REMARK    5  A    between atoms: C18_23  and  C19_24 
ROOT
ATOM      1  C1   11 d         -11.944 207.049 114.348  0.00  0.00     0.121 A 
ATOM      2  C2   11 d         -12.340 206.790 115.756  0.00  0.00     0.008 A 
ATOM      3  C3   11 d         -13.569 207.283 116.238  0.00  0.00     0.017 A 
ATOM      4  C4   11 d         -13.957 207.041 117.564  0.00  0.00     0.025 A 
ATOM      5  C5   11 d         -13.123 206.300 118.418  0.00  0.00     0.034 A 
ATOM      6 Cl1   11 d         -13.616 205.996 120.101  0.00  0.00    -0.084 Cl
ATOM      7  C6   11 d         -11.906 205.793 117.939  0.00  0.00     0.025 A 
ATOM      8  C7   11 d         -11.516 206.032 116.612  0.00  0.00     0.017 A 
ATOM      9  N1   11 d         -10.833 207.737 113.938  0.00  0.00    -0.321 N 
ATOM     10  C8   11 d         -10.861 207.749 112.574  0.00  0.00     0.063 A 
ATOM     11  C9   11 d         -12.003 207.070 112.171  0.00  0.00     0.062 A 
ATOM     12  N2   11 d         -12.666 206.651 113.266  0.00  0.00    -0.335 N 
ATOM     13  C10  11 d         -13.862 205.799 113.278  0.00  0.00     0.158 C 
ATOM     14  C11  11 d         -12.336 206.920 110.815  0.00  0.00     0.032 A 
ATOM     15  C12  11 d         -11.481 207.478 109.849  0.00  0.00     0.002 A 
ATOM     16  C13  11 d         -10.325 208.178 110.245  0.00  0.00     0.002 A 
ATOM     17  C14  11 d         -10.010 208.324 111.611  0.00  0.00     0.032 A 
ENDROOT
BRANCH   9  18
ATOM     18  C15  11 d          -9.867 208.336 114.892  0.00  0.00     0.241 C 
BRANCH  18  19
ATOM     19  C16  11 d          -8.751 209.241 114.443  0.00  0.00     0.277 C 
ATOM     20  O1   11 d          -9.018 210.343 113.897  0.00  0.00    -0.263 OA
BRANCH  19  21
ATOM     21  O2   11 d          -7.398 208.807 114.611  0.00  0.00    -0.314 OA
BRANCH  21  22
ATOM     22  C17  11 d          -6.359 209.787 114.313  0.00  0.00     0.136 C 
ATOM     23  C18  11 d          -5.078 209.047 113.826  0.00  0.00     0.018 C 
ATOM     24  C22  11 d          -4.407 208.311 115.017  0.00  0.00     0.008 C 
ATOM     25  C23  11 d          -4.130 209.230 116.216  0.00  0.00     0.005 C 
ATOM     26  C24  11 d          -5.381 209.973 116.710  0.00  0.00    -0.016 C 
ATOM     27  C25  11 d          -6.085 210.681 115.538  0.00  0.00     0.037 C 
ATOM     28  C26  11 d          -6.315 209.085 117.540  0.00  0.00     0.010 C 
BRANCH  23  29
ATOM     29  C19  11 d          -5.345 208.099 112.607  0.00  0.00    -0.016 C 
ATOM     30  C20  11 d          -4.115 207.898 111.701  0.00  0.00     0.010 C 
ATOM     31  C21  11 d          -6.519 208.572 111.729  0.00  0.00     0.010 C 
ENDBRANCH  23  29
ENDBRANCH  21  22
ENDBRANCH  19  21
ENDBRANCH  18  19
ENDBRANCH   9  18
TORSDOF 5
ENDMDL
MODEL 2
REMARK VINA RESULT:      -9.7      2.701      6.740
REMARK  5 active torsions:
REMARK  status: ('A' for Active; 'I' for Inactive)
REMARK    1  A    between atoms: N1_9  and  C15_18 
REMARK    2  A    between atoms: C15_18  and  C16_19 
REMARK    3  A    between atoms: C16_19  and  O2_21 
REMARK    4  A    between atoms: O2_21  and  C17_22 
REMARK    5  A    between atoms: C18_23  and  C19_24 
ROOT
ATOM      1  C1   11 d         -11.386 207.689 117.258  0.00  0.00     0.121 A 
ATOM      2  C2   11 d         -12.435 207.131 118.149  0.00  0.00     0.008 A 
ATOM      3  C3   11 d         -12.321 205.808 118.620  0.00  0.00     0.017 A 
ATOM      4  C4   11 d         -13.302 205.271 119.466  0.00  0.00     0.025 A 
ATOM      5  C5   11 d         -14.403 206.053 119.853  0.00  0.00     0.034 A 
ATOM      6 Cl1   11 d         -15.649 205.369 120.924  0.00  0.00    -0.084 Cl
ATOM      7  C6   11 d         -14.515 207.375 119.400  0.00  0.00     0.025 A 
ATOM      8  C7   11 d         -13.532 207.917 118.555  0.00  0.00     0.017 A 
ATOM      9  N1   11 d         -11.573 208.143 115.980  0.00  0.00    -0.321 N 
ATOM     10  C8   11 d         -10.353 208.553 115.527  0.00  0.00     0.063 A 
ATOM     11  C9   11 d          -9.433 208.333 116.542  0.00  0.00     0.062 A 
ATOM     12  N2   11 d         -10.073 207.795 117.598  0.00  0.00    -0.335 N 
ATOM     13  C10  11 d          -9.485 207.517 118.914  0.00  0.00     0.158 C 
ATOM     14  C11  11 d          -8.070 208.636 116.384  0.00  0.00     0.032 A 
ATOM     15  C12  11 d          -7.640 209.176 115.160  0.00  0.00     0.002 A 
ATOM     16  C13  11 d          -8.563 209.394 114.119  0.00  0.00     0.002 A 
ATOM     17  C14  11 d          -9.925 209.079 114.293  0.00  0.00     0.032 A 
ENDROOT
BRANCH   9  18
ATOM     18  C15  11 d         -12.897 208.116 115.308  0.00  0.00     0.241 C 
BRANCH  18  19
ATOM     19  C16  11 d         -13.423 206.886 114.618  0.00  0.00     0.277 C 
ATOM     20  O1   11 d         -13.345 205.766 115.188  0.00  0.00    -0.263 OA
BRANCH  19  21
ATOM     21  O2   11 d         -13.967 207.011 113.300  0.00  0.00    -0.314 OA
BRANCH  21  22
ATOM     22  C17  11 d         -13.663 205.932 112.367  0.00  0.00     0.136 C 
ATOM     23  C18  11 d         -12.951 206.520 111.113  0.00  0.00     0.018 C 
ATOM     24  C22  11 d         -13.966 207.326 110.258  0.00  0.00     0.008 C 
ATOM     25  C23  11 d         -15.221 206.520 109.892  0.00  0.00     0.005 C 
ATOM     26  C24  11 d         -15.937 205.927 111.115  0.00  0.00    -0.016 C 
ATOM     27  C25  11 d         -14.942 205.153 111.999  0.00  0.00     0.037 C 
ATOM     28  C26  11 d         -16.764 206.964 111.885  0.00  0.00     0.010 C 
BRANCH  23  29
ATOM     29  C19  11 d         -11.672 207.352 111.471  0.00  0.00    -0.016 C 
ATOM     30  C20  11 d         -10.853 207.783 110.239  0.00  0.00     0.010 C 
ATOM     31  C21  11 d         -10.731 206.612 112.440  0.00  0.00     0.010 C 
ENDBRANCH  23  29
ENDBRANCH  21  22
ENDBRANCH  19  21
ENDBRANCH  18  19
ENDBRANCH   9  18
TORSDOF 5
ENDMDL
MODEL 3
REMARK VINA RESULT:      -9.5      2.168      6.733
REMARK  5 active torsions:
REMARK  status: ('A' for Active; 'I' for Inactive)
REMARK    1  A    between atoms: N1_9  and  C15_18 
REMARK    2  A    between atoms: C15_18  and  C16_19 
REMARK    3  A    between atoms: C16_19  and  O2_21 
REMARK    4  A    between atoms: O2_21  and  C17_22 
REMARK    5  A    between atoms: C18_23  and  C19_24 
ROOT
ATOM      1  C1   11 d          -9.888 208.047 116.750  0.00  0.00     0.121 A 
ATOM      2  C2   11 d         -11.036 207.459 117.486  0.00  0.00     0.008 A 
ATOM      3  C3   11 d         -10.986 206.113 117.898  0.00  0.00     0.017 A 
ATOM      4  C4   11 d         -12.062 205.547 118.598  0.00  0.00     0.025 A 
ATOM      5  C5   11 d         -13.194 206.323 118.898  0.00  0.00     0.034 A 
ATOM      6 Cl1   11 d         -14.558 205.602 119.783  0.00  0.00    -0.084 Cl
ATOM      7  C6   11 d         -13.243 207.668 118.504  0.00  0.00     0.025 A 
ATOM      8  C7   11 d         -12.167 208.238 117.805  0.00  0.00     0.017 A 
ATOM      9  N1   11 d          -9.925 208.568 115.484  0.00  0.00    -0.321 N 
ATOM     10  C8   11 d          -8.658 208.985 115.194  0.00  0.00     0.063 A 
ATOM     11  C9   11 d          -7.862 208.701 116.295  0.00  0.00     0.062 A 
ATOM     12  N2   11 d          -8.622 208.119 117.242  0.00  0.00    -0.335 N 
ATOM     13  C10  11 d          -8.189 207.767 118.600  0.00  0.00     0.158 C 
ATOM     14  C11  11 d          -6.487 208.994 116.308  0.00  0.00     0.032 A 
ATOM     15  C12  11 d          -5.917 209.589 115.171  0.00  0.00     0.002 A 
ATOM     16  C13  11 d          -6.713 209.872 114.044  0.00  0.00     0.002 A 
ATOM     17  C14  11 d          -8.089 209.566 114.046  0.00  0.00     0.032 A 
ENDROOT
BRANCH   9  18
ATOM     18  C15  11 d         -11.163 208.593 114.666  0.00  0.00     0.241 C 
BRANCH  18  19
ATOM     19  C16  11 d         -11.366 207.680 113.486  0.00  0.00     0.277 C 
ATOM     20  O1   11 d         -10.375 207.315 112.800  0.00  0.00    -0.263 OA
BRANCH  19  21
ATOM     21  O2   11 d         -12.694 207.276 113.143  0.00  0.00    -0.314 OA
BRANCH  21  22
ATOM     22  C17  11 d         -13.112 205.957 113.604  0.00  0.00     0.136 C 
ATOM     23  C18  11 d         -14.263 205.433 112.694  0.00  0.00     0.018 C 
ATOM     24  C22  11 d         -15.564 206.231 112.975  0.00  0.00     0.008 C 
ATOM     25  C23  11 d         -15.955 206.245 114.459  0.00  0.00     0.005 C 
ATOM     26  C24  11 d         -14.833 206.755 115.376  0.00  0.00    -0.016 C 
ATOM     27  C25  11 d         -13.521 206.003 115.090  0.00  0.00     0.037 C 
ATOM     28  C26  11 d         -14.684 208.281 115.347  0.00  0.00     0.010 C 
BRANCH  23  29
ATOM     29  C19  11 d         -13.881 205.419 111.174  0.00  0.00    -0.016 C 
ATOM     30  C20  11 d         -14.599 206.503 110.348  0.00  0.00     0.010 C 
ATOM     31  C21  11 d         -14.138 204.055 110.506  0.00  0.00     0.010 C 
ENDBRANCH  23  29
ENDBRANCH  21  22
ENDBRANCH  19  21
ENDBRANCH  18  19
ENDBRANCH   9  18
TORSDOF 5
ENDMDL
MODEL 4
REMARK VINA RESULT:      -9.3      2.318      7.163
REMARK  5 active torsions:
REMARK  status: ('A' for Active; 'I' for Inactive)
REMARK    1  A    between atoms: N1_9  and  C15_18 
REMARK    2  A    between atoms: C15_18  and  C16_19 
REMARK    3  A    between atoms: C16_19  and  O2_21 
REMARK    4  A    between atoms: O2_21  and  C17_22 
REMARK    5  A    between atoms: C18_23  and  C19_24 
ROOT
ATOM      1  C1   11 d         -10.200 207.987 116.463  0.00  0.00     0.121 A 
ATOM      2  C2   11 d         -11.204 207.415 117.397  0.00  0.00     0.008 A 
ATOM      3  C3   11 d         -10.953 206.176 118.018  0.00  0.00     0.017 A 
ATOM      4  C4   11 d         -11.890 205.627 118.907  0.00  0.00     0.025 A 
ATOM      5  C5   11 d         -13.083 206.315 119.185  0.00  0.00     0.034 A 
ATOM      6 Cl1   11 d         -14.272 205.616 120.310  0.00  0.00    -0.084 Cl
ATOM      7  C6   11 d         -13.331 207.556 118.582  0.00  0.00     0.025 A 
ATOM      8  C7   11 d         -12.394 208.109 117.695  0.00  0.00     0.017 A 
ATOM      9  N1   11 d         -10.403 208.270 115.138  0.00  0.00    -0.321 N 
ATOM     10  C8   11 d          -9.226 208.766 114.659  0.00  0.00     0.063 A 
ATOM     11  C9   11 d          -8.315 208.770 115.706  0.00  0.00     0.062 A 
ATOM     12  N2   11 d          -8.919 208.283 116.807  0.00  0.00    -0.335 N 
ATOM     13  C10  11 d          -8.339 208.225 118.155  0.00  0.00     0.158 C 
ATOM     14  C11  11 d          -6.991 209.209 115.534  0.00  0.00     0.032 A 
ATOM     15  C12  11 d          -6.592 209.653 114.262  0.00  0.00     0.002 A 
ATOM     16  C13  11 d          -7.505 209.645 113.190  0.00  0.00     0.002 A 
ATOM     17  C14  11 d          -8.827 209.195 113.379  0.00  0.00     0.032 A 
ENDROOT
BRANCH   9  18
ATOM     18  C15  11 d         -11.696 208.014 114.455  0.00  0.00     0.241 C 
BRANCH  18  19
ATOM     19  C16  11 d         -11.907 206.829 113.552  0.00  0.00     0.277 C 
ATOM     20  O1   11 d         -10.916 206.258 113.026  0.00  0.00    -0.263 OA
BRANCH  19  21
ATOM     21  O2   11 d         -13.243 206.397 113.277  0.00  0.00    -0.314 OA
BRANCH  21  22
ATOM     22  C17  11 d         -14.126 207.374 112.649  0.00  0.00     0.136 C 
ATOM     23  C18  11 d         -15.515 207.340 113.353  0.00  0.00     0.018 C 
ATOM     24  C22  11 d         -16.266 206.034 112.978  0.00  0.00     0.008 C 
ATOM     25  C23  11 d         -16.373 205.813 111.463  0.00  0.00     0.005 C 
ATOM     26  C24  11 d         -15.013 205.847 110.748  0.00  0.00    -0.016 C 
ATOM     27  C25  11 d         -14.234 207.117 111.133  0.00  0.00     0.037 C 
ATOM     28  C26  11 d         -14.209 204.554 110.932  0.00  0.00     0.010 C 
BRANCH  23  29
ATOM     29  C19  11 d         -15.421 207.557 114.902  0.00  0.00    -0.016 C 
ATOM     30  C20  11 d         -14.670 208.842 115.301  0.00  0.00     0.010 C 
ATOM     31  C21  11 d         -14.766 206.369 115.633  0.00  0.00     0.010 C 
ENDBRANCH  23  29
ENDBRANCH  21  22
ENDBRANCH  19  21
ENDBRANCH  18  19
ENDBRANCH   9  18
TORSDOF 5
ENDMDL
MODEL 5
REMARK VINA RESULT:      -9.1      2.545      6.819
REMARK  5 active torsions:
REMARK  status: ('A' for Active; 'I' for Inactive)
REMARK    1  A    between atoms: N1_9  and  C15_18 
REMARK    2  A    between atoms: C15_18  and  C16_19 
REMARK    3  A    between atoms: C16_19  and  O2_21 
REMARK    4  A    between atoms: O2_21  and  C17_22 
REMARK    5  A    between atoms: C18_23  and  C19_24 
ROOT
ATOM      1  C1   11 d          -5.998 207.714 116.634  0.00  0.00     0.121 A 
ATOM      2  C2   11 d          -6.577 207.628 117.999  0.00  0.00     0.008 A 
ATOM      3  C3   11 d          -6.989 206.380 118.505  0.00  0.00     0.017 A 
ATOM      4  C4   11 d          -7.533 206.283 119.795  0.00  0.00     0.025 A 
ATOM      5  C5   11 d          -7.664 207.433 120.591  0.00  0.00     0.034 A 
ATOM      6 Cl1   11 d          -8.356 207.311 122.226  0.00  0.00    -0.084 Cl
ATOM      7  C6   11 d          -7.241 208.677 120.098  0.00  0.00     0.025 A 
ATOM      8  C7   11 d          -6.695 208.775 118.809  0.00  0.00     0.017 A 
ATOM      9  N1   11 d          -6.507 208.438 115.588  0.00  0.00    -0.321 N 
ATOM     10  C8   11 d          -5.677 208.227 114.525  0.00  0.00     0.063 A 
ATOM     11  C9   11 d          -4.673 207.364 114.942  0.00  0.00     0.062 A 
ATOM     12  N2   11 d          -4.882 207.048 116.235  0.00  0.00    -0.335 N 
ATOM     13  C10  11 d          -3.987 206.252 117.084  0.00  0.00     0.158 C 
ATOM     14  C11  11 d          -3.660 206.931 114.070  0.00  0.00     0.032 A 
ATOM     15  C12  11 d          -3.676 207.392 112.743  0.00  0.00     0.002 A 
ATOM     16  C13  11 d          -4.695 208.260 112.306  0.00  0.00     0.002 A 
ATOM     17  C14  11 d          -5.706 208.679 113.193  0.00  0.00     0.032 A 
ENDROOT
BRANCH   9  18
ATOM     18  C15  11 d          -7.750 209.240 115.701  0.00  0.00     0.241 C 
BRANCH  18  19
ATOM     19  C16  11 d          -8.866 209.140 114.695  0.00  0.00     0.277 C 
ATOM     20  O1   11 d          -8.982 210.018 113.800  0.00  0.00    -0.263 OA
BRANCH  19  21
ATOM     21  O2   11 d          -9.801 208.063 114.804  0.00  0.00    -0.314 OA
BRANCH  21  22
ATOM     22  C17  11 d         -11.142 208.410 115.260  0.00  0.00     0.136 C 
ATOM     23  C18  11 d         -11.585 207.408 116.367  0.00  0.00     0.018 C 
ATOM     24  C22  11 d         -11.876 206.018 115.737  0.00  0.00     0.008 C 
ATOM     25  C23  11 d         -12.875 206.081 114.573  0.00  0.00     0.005 C 
ATOM     26  C24  11 d         -12.459 207.068 113.471  0.00  0.00    -0.016 C 
ATOM     27  C25  11 d         -12.129 208.444 114.077  0.00  0.00     0.037 C 
ATOM     28  C26  11 d         -11.354 206.517 112.561  0.00  0.00     0.010 C 
BRANCH  23  29
ATOM     29  C19  11 d         -10.571 207.327 117.560  0.00  0.00    -0.016 C 
ATOM     30  C20  11 d         -10.947 206.272 118.618  0.00  0.00     0.010 C 
ATOM     31  C21  11 d         -10.380 208.679 118.273  0.00  0.00     0.010 C 
ENDBRANCH  23  29
ENDBRANCH  21  22
ENDBRANCH  19  21
ENDBRANCH  18  19
ENDBRANCH   9  18
TORSDOF 5
ENDMDL
MODEL 6
REMARK VINA RESULT:      -9.0      2.310      4.199
REMARK  5 active torsions:
REMARK  status: ('A' for Active; 'I' for Inactive)
REMARK    1  A    between atoms: N1_9  and  C15_18 
REMARK    2  A    between atoms: C15_18  and  C16_19 
REMARK    3  A    between atoms: C16_19  and  O2_21 
REMARK    4  A    between atoms: O2_21  and  C17_22 
REMARK    5  A    between atoms: C18_23  and  C19_24 
ROOT
ATOM      1  C1   11 d         -11.503 207.048 114.795  0.00  0.00     0.121 A 
ATOM      2  C2   11 d         -12.524 206.184 115.441  0.00  0.00     0.008 A 
ATOM      3  C3   11 d         -13.882 206.332 115.097  0.00  0.00     0.017 A 
ATOM      4  C4   11 d         -14.856 205.519 115.696  0.00  0.00     0.025 A 
ATOM      5  C5   11 d         -14.480 204.548 116.638  0.00  0.00     0.034 A 
ATOM      6 Cl1   11 d         -15.717 203.519 117.399  0.00  0.00    -0.084 Cl
ATOM      7  C6   11 d         -13.128 204.385 116.974  0.00  0.00     0.025 A 
ATOM      8  C7   11 d         -12.151 205.196 116.374  0.00  0.00     0.017 A 
ATOM      9  N1   11 d         -10.669 207.924 115.436  0.00  0.00    -0.321 N 
ATOM     10  C8   11 d          -9.906 208.516 114.471  0.00  0.00     0.063 A 
ATOM     11  C9   11 d         -10.297 207.991 113.247  0.00  0.00     0.062 A 
ATOM     12  N2   11 d         -11.282 207.097 113.454  0.00  0.00    -0.335 N 
ATOM     13  C10  11 d         -11.895 206.236 112.434  0.00  0.00     0.158 C 
ATOM     14  C11  11 d          -9.711 208.411 112.041  0.00  0.00     0.032 A 
ATOM     15  C12  11 d          -8.703 209.389 112.089  0.00  0.00     0.002 A 
ATOM     16  C13  11 d          -8.305 209.935 113.325  0.00  0.00     0.002 A 
ATOM     17  C14  11 d          -8.908 209.507 114.524  0.00  0.00     0.032 A 
ENDROOT
BRANCH   9  18
ATOM     18  C15  11 d         -10.700 208.129 116.905  0.00  0.00     0.241 C 
BRANCH  18  19
ATOM     19  C16  11 d          -9.632 207.584 117.815  0.00  0.00     0.277 C 
ATOM     20  O1   11 d          -9.936 206.752 118.710  0.00  0.00    -0.263 OA
BRANCH  19  21
ATOM     21  O2   11 d          -8.290 208.057 117.669  0.00  0.00    -0.314 OA
BRANCH  21  22
ATOM     22  C17  11 d          -7.302 207.505 118.589  0.00  0.00     0.136 C 
ATOM     23  C18  11 d          -6.610 208.667 119.361  0.00  0.00     0.018 C 
ATOM     24  C22  11 d          -5.668 209.449 118.406  0.00  0.00     0.008 C 
ATOM     25  C23  11 d          -4.658 208.547 117.682  0.00  0.00     0.005 C 
ATOM     26  C24  11 d          -5.320 207.390 116.917  0.00  0.00    -0.016 C 
ATOM     27  C25  11 d          -6.288 206.622 117.835  0.00  0.00     0.037 C 
ATOM     28  C26  11 d          -5.952 207.834 115.593  0.00  0.00     0.010 C 
BRANCH  23  29
ATOM     29  C19  11 d          -7.628 209.602 120.100  0.00  0.00    -0.016 C 
ATOM     30  C20  11 d          -6.995 210.900 120.639  0.00  0.00     0.010 C 
ATOM     31  C21  11 d          -8.349 208.898 121.264  0.00  0.00     0.010 C 
ENDBRANCH  23  29
ENDBRANCH  21  22
ENDBRANCH  19  21
ENDBRANCH  18  19
ENDBRANCH   9  18
TORSDOF 5
ENDMDL
MODEL 7
REMARK VINA RESULT:      -9.0      1.030      2.556
REMARK  5 active torsions:
REMARK  status: ('A' for Active; 'I' for Inactive)
REMARK    1  A    between atoms: N1_9  and  C15_18 
REMARK    2  A    between atoms: C15_18  and  C16_19 
REMARK    3  A    between atoms: C16_19  and  O2_21 
REMARK    4  A    between atoms: O2_21  and  C17_22 
REMARK    5  A    between atoms: C18_23  and  C19_24 
ROOT
ATOM      1  C1   11 d         -11.842 207.107 114.404  0.00  0.00     0.121 A 
ATOM      2  C2   11 d         -12.276 206.850 115.801  0.00  0.00     0.008 A 
ATOM      3  C3   11 d         -13.506 207.364 116.256  0.00  0.00     0.017 A 
ATOM      4  C4   11 d         -13.930 207.124 117.572  0.00  0.00     0.025 A 
ATOM      5  C5   11 d         -13.131 206.364 118.441  0.00  0.00     0.034 A 
ATOM      6 Cl1   11 d         -13.668 206.064 120.111  0.00  0.00    -0.084 Cl
ATOM      7  C6   11 d         -11.912 205.837 117.990  0.00  0.00     0.025 A 
ATOM      8  C7   11 d         -11.487 206.073 116.673  0.00  0.00     0.017 A 
ATOM      9  N1   11 d         -10.709 207.775 114.023  0.00  0.00    -0.321 N 
ATOM     10  C8   11 d         -10.704 207.793 112.659  0.00  0.00     0.063 A 
ATOM     11  C9   11 d         -11.849 207.137 112.227  0.00  0.00     0.062 A 
ATOM     12  N2   11 d         -12.545 206.726 113.304  0.00  0.00    -0.335 N 
ATOM     13  C10  11 d         -13.757 205.897 113.283  0.00  0.00     0.158 C 
ATOM     14  C11  11 d         -12.152 206.999 110.862  0.00  0.00     0.032 A 
ATOM     15  C12  11 d         -11.264 207.544 109.919  0.00  0.00     0.002 A 
ATOM     16  C13  11 d         -10.105 208.220 110.345  0.00  0.00     0.002 A 
ATOM     17  C14  11 d          -9.820 208.355 111.718  0.00  0.00     0.032 A 
ENDROOT
BRANCH   9  18
ATOM     18  C15  11 d          -9.754 208.353 115.002  0.00  0.00     0.241 C 
BRANCH  18  19
ATOM     19  C16  11 d          -8.802 209.461 114.639  0.00  0.00     0.277 C 
ATOM     20  O1   11 d          -9.131 210.309 113.769  0.00  0.00    -0.263 OA
BRANCH  19  21
ATOM     21  O2   11 d          -7.517 209.503 115.266  0.00  0.00    -0.314 OA
BRANCH  21  22
ATOM     22  C17  11 d          -6.853 208.221 115.475  0.00  0.00     0.136 C 
ATOM     23  C18  11 d          -6.264 208.175 116.916  0.00  0.00     0.018 C 
ATOM     24  C22  11 d          -5.037 209.123 117.016  0.00  0.00     0.008 C 
ATOM     25  C23  11 d          -3.975 208.850 115.942  0.00  0.00     0.005 C 
ATOM     26  C24  11 d          -4.537 208.886 114.512  0.00  0.00    -0.016 C 
ATOM     27  C25  11 d          -5.777 207.982 114.398  0.00  0.00     0.037 C 
ATOM     28  C26  11 d          -4.767 210.312 113.997  0.00  0.00     0.010 C 
BRANCH  23  29
ATOM     29  C19  11 d          -7.335 208.459 118.024  0.00  0.00    -0.016 C 
ATOM     30  C20  11 d          -6.731 208.945 119.356  0.00  0.00     0.010 C 
ATOM     31  C21  11 d          -8.229 207.240 118.317  0.00  0.00     0.010 C 
ENDBRANCH  23  29
ENDBRANCH  21  22
ENDBRANCH  19  21
ENDBRANCH  18  19
ENDBRANCH   9  18
TORSDOF 5
ENDMDL
MODEL 8
REMARK VINA RESULT:      -8.8      2.905      7.349
REMARK  5 active torsions:
REMARK  status: ('A' for Active; 'I' for Inactive)
REMARK    1  A    between atoms: N1_9  and  C15_18 
REMARK    2  A    between atoms: C15_18  and  C16_19 
REMARK    3  A    between atoms: C16_19  and  O2_21 
REMARK    4  A    between atoms: O2_21  and  C17_22 
REMARK    5  A    between atoms: C18_23  and  C19_24 
ROOT
ATOM      1  C1   11 d          -7.966 208.300 117.071  0.00  0.00     0.121 A 
ATOM      2  C2   11 d          -7.894 207.932 118.508  0.00  0.00     0.008 A 
ATOM      3  C3   11 d          -7.325 206.700 118.886  0.00  0.00     0.017 A 
ATOM      4  C4   11 d          -7.246 206.342 120.240  0.00  0.00     0.025 A 
ATOM      5  C5   11 d          -7.729 207.215 121.228  0.00  0.00     0.034 A 
ATOM      6 Cl1   11 d          -7.631 206.758 122.946  0.00  0.00    -0.084 Cl
ATOM      7  C6   11 d          -8.283 208.450 120.860  0.00  0.00     0.025 A 
ATOM      8  C7   11 d          -8.361 208.812 119.506  0.00  0.00     0.017 A 
ATOM      9  N1   11 d          -9.110 208.547 116.361  0.00  0.00    -0.321 N 
ATOM     10  C8   11 d          -8.724 208.836 115.084  0.00  0.00     0.063 A 
ATOM     11  C9   11 d          -7.339 208.750 115.035  0.00  0.00     0.062 A 
ATOM     12  N2   11 d          -6.883 208.414 116.257  0.00  0.00    -0.335 N 
ATOM     13  C10  11 d          -5.473 208.331 116.659  0.00  0.00     0.158 C 
ATOM     14  C11  11 d          -6.625 208.975 113.846  0.00  0.00     0.032 A 
ATOM     15  C12  11 d          -7.344 209.293 112.682  0.00  0.00     0.002 A 
ATOM     16  C13  11 d          -8.750 209.373 112.717  0.00  0.00     0.002 A 
ATOM     17  C14  11 d          -9.450 209.139 113.917  0.00  0.00     0.032 A 
ENDROOT
BRANCH   9  18
ATOM     18  C15  11 d         -10.462 208.459 116.966  0.00  0.00     0.241 C 
BRANCH  18  19
ATOM     19  C16  11 d         -11.199 207.154 117.102  0.00  0.00     0.277 C 
ATOM     20  O1   11 d         -10.933 206.381 118.060  0.00  0.00    -0.263 OA
BRANCH  19  21
ATOM     21  O2   11 d         -12.164 206.797 116.108  0.00  0.00    -0.314 OA
BRANCH  21  22
ATOM     22  C17  11 d         -13.528 207.265 116.329  0.00  0.00     0.136 C 
ATOM     23  C18  11 d         -14.506 206.055 116.258  0.00  0.00     0.018 C 
ATOM     24  C22  11 d         -14.634 205.563 114.791  0.00  0.00     0.008 C 
ATOM     25  C23  11 d         -15.017 206.681 113.811  0.00  0.00     0.005 C 
ATOM     26  C24  11 d         -14.067 207.888 113.868  0.00  0.00    -0.016 C 
ATOM     27  C25  11 d         -13.895 208.370 115.319  0.00  0.00     0.037 C 
ATOM     28  C26  11 d         -12.739 207.637 113.143  0.00  0.00     0.010 C 
BRANCH  23  29
ATOM     29  C19  11 d         -14.123 204.901 117.248  0.00  0.00    -0.016 C 
ATOM     30  C20  11 d         -14.984 203.634 117.080  0.00  0.00     0.010 C 
ATOM     31  C21  11 d         -14.187 205.335 118.724  0.00  0.00     0.010 C 
ENDBRANCH  23  29
ENDBRANCH  21  22
ENDBRANCH  19  21
ENDBRANCH  18  19
ENDBRANCH   9  18
TORSDOF 5
ENDMDL
MODEL 9
REMARK VINA RESULT:      -8.7      2.889      7.004
REMARK  5 active torsions:
REMARK  status: ('A' for Active; 'I' for Inactive)
REMARK    1  A    between atoms: N1_9  and  C15_18 
REMARK    2  A    between atoms: C15_18  and  C16_19 
REMARK    3  A    between atoms: C16_19  and  O2_21 
REMARK    4  A    between atoms: O2_21  and  C17_22 
REMARK    5  A    between atoms: C18_23  and  C19_24 
ROOT
ATOM      1  C1   11 d          -7.615 208.336 117.002  0.00  0.00     0.121 A 
ATOM      2  C2   11 d          -7.356 208.006 118.427  0.00  0.00     0.008 A 
ATOM      3  C3   11 d          -6.809 206.753 118.765  0.00  0.00     0.017 A 
ATOM      4  C4   11 d          -6.555 206.430 120.106  0.00  0.00     0.025 A 
ATOM      5  C5   11 d          -6.839 207.359 121.120  0.00  0.00     0.034 A 
ATOM      6 Cl1   11 d          -6.519 206.948 122.822  0.00  0.00    -0.084 Cl
ATOM      7  C6   11 d          -7.370 208.615 120.789  0.00  0.00     0.025 A 
ATOM      8  C7   11 d          -7.623 208.941 119.447  0.00  0.00     0.017 A 
ATOM      9  N1   11 d          -8.834 208.633 116.454  0.00  0.00    -0.321 N 
ATOM     10  C8   11 d          -8.621 208.859 115.125  0.00  0.00     0.063 A 
ATOM     11  C9   11 d          -7.265 208.688 114.882  0.00  0.00     0.062 A 
ATOM     12  N2   11 d          -6.657 208.359 116.037  0.00  0.00    -0.335 N 
ATOM     13  C10  11 d          -5.210 208.202 116.236  0.00  0.00     0.158 C 
ATOM     14  C11  11 d          -6.720 208.833 113.595  0.00  0.00     0.032 A 
ATOM     15  C12  11 d          -7.581 209.161 112.535  0.00  0.00     0.002 A 
ATOM     16  C13  11 d          -8.960 209.329 112.767  0.00  0.00     0.002 A 
ATOM     17  C14  11 d          -9.491 209.173 114.063  0.00  0.00     0.032 A 
ENDROOT
BRANCH   9  18
ATOM     18  C15  11 d         -10.087 208.645 117.249  0.00  0.00     0.241 C 
BRANCH  18  19
ATOM     19  C16  11 d         -10.856 207.389 117.558  0.00  0.00     0.277 C 
ATOM     20  O1   11 d         -10.436 206.598 118.443  0.00  0.00    -0.263 OA
BRANCH  19  21
ATOM     21  O2   11 d         -12.036 207.096 116.803  0.00  0.00    -0.314 OA
BRANCH  21  22
ATOM     22  C17  11 d         -12.013 205.873 116.008  0.00  0.00     0.136 C 
ATOM     23  C18  11 d         -12.965 206.035 114.786  0.00  0.00     0.018 C 
ATOM     24  C22  11 d         -14.443 206.010 115.260  0.00  0.00     0.008 C 
ATOM     25  C23  11 d         -14.784 204.775 116.105  0.00  0.00     0.005 C 
ATOM     26  C24  11 d         -13.855 204.594 117.315  0.00  0.00    -0.016 C 
ATOM     27  C25  11 d         -12.381 204.653 116.875  0.00  0.00     0.037 C 
ATOM     28  C26  11 d         -14.188 205.543 118.473  0.00  0.00     0.010 C 
BRANCH  23  29
ATOM     29  C19  11 d         -12.633 207.296 113.916  0.00  0.00    -0.016 C 
ATOM     30  C20  11 d         -13.819 208.268 113.762  0.00  0.00     0.010 C 
ATOM     31  C21  11 d         -12.121 206.934 112.510  0.00  0.00     0.010 C 
ENDBRANCH  23  29
ENDBRANCH  21  22
ENDBRANCH  19  21
ENDBRANCH  18  19
ENDBRANCH   9  18
TORSDOF 5
ENDMDL
MODEL 10
REMARK VINA RESULT:      -8.7      3.607      8.287
REMARK  5 active torsions:
REMARK  status: ('A' for Active; 'I' for Inactive)
REMARK    1  A    between atoms: N1_9  and  C15_18 
REMARK    2  A    between atoms: C15_18  and  C16_19 
REMARK    3  A    between atoms: C16_19  and  O2_21 
REMARK    4  A    between atoms: O2_21  and  C17_22 
REMARK    5  A    between atoms: C18_23  and  C19_24 
ROOT
ATOM      1  C1   11 d          -6.006 208.996 117.947  0.00  0.00     0.121 A 
ATOM      2  C2   11 d          -5.462 208.817 116.576  0.00  0.00     0.008 A 
ATOM      3  C3   11 d          -5.279 209.939 115.746  0.00  0.00     0.017 A 
ATOM      4  C4   11 d          -4.761 209.785 114.451  0.00  0.00     0.025 A 
ATOM      5  C5   11 d          -4.418 208.508 113.978  0.00  0.00     0.034 A 
ATOM      6 Cl1   11 d          -3.764 208.313 112.334  0.00  0.00    -0.084 Cl
ATOM      7  C6   11 d          -4.584 207.388 114.805  0.00  0.00     0.025 A 
ATOM      8  C7   11 d          -5.099 207.540 116.103  0.00  0.00     0.017 A 
ATOM      9  N1   11 d          -7.167 208.452 118.429  0.00  0.00    -0.321 N 
ATOM     10  C8   11 d          -7.292 208.878 119.720  0.00  0.00     0.063 A 
ATOM     11  C9   11 d          -6.200 209.687 120.002  0.00  0.00     0.062 A 
ATOM     12  N2   11 d          -5.420 209.760 118.907  0.00  0.00    -0.335 N 
ATOM     13  C10  11 d          -4.113 210.423 118.821  0.00  0.00     0.158 C 
ATOM     14  C11  11 d          -6.040 210.303 121.255  0.00  0.00     0.032 A 
ATOM     15  C12  11 d          -7.019 210.087 122.239  0.00  0.00     0.002 A 
ATOM     16  C13  11 d          -8.136 209.275 121.961  0.00  0.00     0.002 A 
ATOM     17  C14  11 d          -8.283 208.670 120.697  0.00  0.00     0.032 A 
ENDROOT
BRANCH   9  18
ATOM     18  C15  11 d          -8.055 207.600 117.601  0.00  0.00     0.241 C 
BRANCH  18  19
ATOM     19  C16  11 d          -9.296 208.137 116.938  0.00  0.00     0.277 C 
ATOM     20  O1   11 d         -10.203 208.659 117.638  0.00  0.00    -0.263 OA
BRANCH  19  21
ATOM     21  O2   11 d          -9.436 208.006 115.521  0.00  0.00    -0.314 OA
BRANCH  21  22
ATOM     22  C17  11 d         -10.246 209.017 114.851  0.00  0.00     0.136 C 
ATOM     23  C18  11 d         -11.418 208.322 114.096  0.00  0.00     0.018 C 
ATOM     24  C22  11 d         -10.872 207.564 112.856  0.00  0.00     0.008 C 
ATOM     25  C23  11 d         -10.026 208.451 111.931  0.00  0.00     0.005 C 
ATOM     26  C24  11 d          -8.866 209.150 112.657  0.00  0.00    -0.016 C 
ATOM     27  C25  11 d          -9.378 209.878 113.913  0.00  0.00     0.037 C 
ATOM     28  C26  11 d          -7.681 208.215 112.931  0.00  0.00     0.010 C 
BRANCH  23  29
ATOM     29  C19  11 d         -12.287 207.407 115.026  0.00  0.00    -0.016 C 
ATOM     30  C20  11 d         -12.085 205.901 114.773  0.00  0.00     0.010 C 
ATOM     31  C21  11 d         -13.793 207.715 114.927  0.00  0.00     0.010 C 
ENDBRANCH  23  29
ENDBRANCH  21  22
ENDBRANCH  19  21
ENDBRANCH  18  19
ENDBRANCH   9  18
TORSDOF 5
ENDMDL
