MODEL 1
REMARK VINA RESULT:      -9.5      0.000      0.000
REMARK  2 active torsions:
REMARK  status: ('A' for Active; 'I' for Inactive)
REMARK    1  A    between atoms: C2_5  and  C1_2 
REMARK    2  A    between atoms: C7_10  and  N1_11 
REMARK       I    between atoms: N1_11  and  C8_12 
ROOT
ATOM      1  N1  <1> d          12.276  44.297  27.128  0.00  0.00    -0.284 N 
ATOM      2  C8  <1> d          12.165  43.507  28.340  0.00  0.00     0.220 A 
ATOM      3  N2  <1> d          11.289  43.917  29.242  0.00  0.00    -0.223 NA
ATOM      4  C9  <1> d          11.142  43.197  30.408  0.00  0.00     0.116 A 
ATOM      5  C10 <1> d          11.878  42.023  30.727  0.00  0.00     0.049 A 
ATOM      6  N3  <1> d          12.907  42.408  28.550  0.00  0.00    -0.214 NA
ATOM      7  C11 <1> d          12.826  41.618  29.709  0.00  0.00     0.084 A 
ATOM      8  C12 <1> d          13.708  40.478  29.763  0.00  0.00     0.060 A 
ATOM      9  S1  <1> d          14.773  40.261  28.326  0.00  0.00    -0.071 SA
ATOM     10  C13 <1> d          13.991  39.425  30.674  0.00  0.00     0.055 A 
ATOM     11  C14 <1> d          13.334  39.190  32.060  0.00  0.00     0.067 C 
ATOM     12  N4  <1> d          14.979  38.510  30.247  0.00  0.00    -0.249 NA
ATOM     13  C15 <1> d          15.437  38.881  29.023  0.00  0.00     0.076 A 
ATOM     14  C16 <1> d          16.487  38.203  28.189  0.00  0.00     0.074 C 
ATOM     15  H5  <1> d          11.639  45.066  27.189  0.00  0.00     0.155 HD
ENDROOT
BRANCH   1  16
ATOM     16  C7  <1> d          12.991  44.381  25.830  0.00  0.00     0.034 A 
ATOM     17  C4  <1> d          14.359  43.787  25.670  0.00  0.00     0.024 A 
ATOM     18  C3  <1> d          15.052  43.903  24.415  0.00  0.00     0.014 A 
ATOM     19  C2  <1> d          14.422  44.593  23.302  0.00  0.00     0.055 A 
ATOM     20  C5  <1> d          13.084  45.153  23.473  0.00  0.00     0.014 A 
ATOM     21  C6  <1> d          12.400  45.043  24.704  0.00  0.00     0.024 A 
BRANCH  19  22
ATOM     22  C1  <1> d          15.194  44.761  21.906  0.00  0.00     0.417 C 
ATOM     23  F1  <1> d          16.261  45.662  22.107  0.00  0.00    -0.166 F 
ATOM     24  F2  <1> d          15.716  43.518  21.477  0.00  0.00    -0.166 F 
ATOM     25  F3  <1> d          14.314  45.269  20.945  0.00  0.00    -0.166 F 
ENDBRANCH  19  22
ENDBRANCH   1  16
TORSDOF 2
ENDMDL
MODEL 2
REMARK VINA RESULT:      -9.2      4.836      8.460
REMARK  2 active torsions:
REMARK  status: ('A' for Active; 'I' for Inactive)
REMARK    1  A    between atoms: C2_5  and  C1_2 
REMARK    2  A    between atoms: C7_10  and  N1_11 
REMARK       I    between atoms: N1_11  and  C8_12 
ROOT
ATOM      1  N1  <1> d          15.631  42.341  26.382  0.00  0.00    -0.284 N 
ATOM      2  C8  <1> d          15.235  43.290  25.358  0.00  0.00     0.220 A 
ATOM      3  N2  <1> d          16.127  43.567  24.423  0.00  0.00    -0.223 NA
ATOM      4  C9  <1> d          15.796  44.458  23.425  0.00  0.00     0.116 A 
ATOM      5  C10 <1> d          14.544  45.123  23.322  0.00  0.00     0.049 A 
ATOM      6  N3  <1> d          14.023  43.867  25.346  0.00  0.00    -0.214 NA
ATOM      7  C11 <1> d          13.604  44.789  24.372  0.00  0.00     0.084 A 
ATOM      8  C12 <1> d          12.268  45.312  24.526  0.00  0.00     0.060 A 
ATOM      9  S1  <1> d          11.359  44.692  25.953  0.00  0.00    -0.071 SA
ATOM     10  C13 <1> d          11.424  46.224  23.839  0.00  0.00     0.055 A 
ATOM     11  C14 <1> d          11.765  47.023  22.553  0.00  0.00     0.067 C 
ATOM     12  N4  <1> d          10.143  46.404  24.408  0.00  0.00    -0.249 NA
ATOM     13  C15 <1> d          10.033  45.633  25.521  0.00  0.00     0.076 A 
ATOM     14  C16 <1> d           8.852  45.507  26.440  0.00  0.00     0.074 C 
ATOM     15  H5  <1> d          16.569  42.047  26.197  0.00  0.00     0.155 HD
ENDROOT
BRANCH   1  16
ATOM     16  C7  <1> d          15.153  41.647  27.604  0.00  0.00     0.034 A 
ATOM     17  C4  <1> d          14.476  42.412  28.702  0.00  0.00     0.024 A 
ATOM     18  C3  <1> d          14.044  41.731  29.893  0.00  0.00     0.014 A 
ATOM     19  C2  <1> d          14.263  40.300  30.027  0.00  0.00     0.055 A 
ATOM     20  C5  <1> d          14.911  39.570  28.941  0.00  0.00     0.014 A 
ATOM     21  C6  <1> d          15.338  40.235  27.770  0.00  0.00     0.024 A 
BRANCH  19  22
ATOM     22  C1  <1> d          13.818  39.531  31.363  0.00  0.00     0.417 C 
ATOM     23  F1  <1> d          13.854  38.146  31.097  0.00  0.00    -0.166 F 
ATOM     24  F2  <1> d          14.711  39.820  32.421  0.00  0.00    -0.166 F 
ATOM     25  F3  <1> d          12.520  39.917  31.713  0.00  0.00    -0.166 F 
ENDBRANCH  19  22
ENDBRANCH   1  16
TORSDOF 2
ENDMDL
MODEL 3
REMARK VINA RESULT:      -8.7      1.252      1.835
REMARK  2 active torsions:
REMARK  status: ('A' for Active; 'I' for Inactive)
REMARK    1  A    between atoms: C2_5  and  C1_2 
REMARK    2  A    between atoms: C7_10  and  N1_11 
REMARK       I    between atoms: N1_11  and  C8_12 
ROOT
ATOM      1  N1  <1> d          11.441  44.395  28.572  0.00  0.00    -0.284 N 
ATOM      2  C8  <1> d          11.444  43.520  29.730  0.00  0.00     0.220 A 
ATOM      3  N2  <1> d          10.646  43.852  30.731  0.00  0.00    -0.223 NA
ATOM      4  C9  <1> d          10.609  43.049  31.851  0.00  0.00     0.116 A 
ATOM      5  C10 <1> d          11.382  41.868  32.021  0.00  0.00     0.049 A 
ATOM      6  N3  <1> d          12.212  42.421  29.796  0.00  0.00    -0.214 NA
ATOM      7  C11 <1> d          12.241  41.551  30.899  0.00  0.00     0.084 A 
ATOM      8  C12 <1> d          13.136  40.425  30.795  0.00  0.00     0.060 A 
ATOM      9  S1  <1> d          14.074  40.326  29.260  0.00  0.00    -0.071 SA
ATOM     10  C13 <1> d          13.509  39.316  31.601  0.00  0.00     0.055 A 
ATOM     11  C14 <1> d          12.978  38.974  33.019  0.00  0.00     0.067 C 
ATOM     12  N4  <1> d          14.465  38.449  31.027  0.00  0.00    -0.249 NA
ATOM     13  C15 <1> d          14.811  38.911  29.797  0.00  0.00     0.076 A 
ATOM     14  C16 <1> d          15.790  38.311  28.829  0.00  0.00     0.074 C 
ATOM     15  H5  <1> d          10.803  45.147  28.743  0.00  0.00     0.155 HD
ENDROOT
BRANCH   1  16
ATOM     16  C7  <1> d          12.038  44.581  27.226  0.00  0.00     0.034 A 
ATOM     17  C4  <1> d          11.180  44.952  26.053  0.00  0.00     0.024 A 
ATOM     18  C3  <1> d          11.769  45.099  24.749  0.00  0.00     0.014 A 
ATOM     19  C2  <1> d          13.197  44.892  24.572  0.00  0.00     0.055 A 
ATOM     20  C5  <1> d          14.018  44.545  25.729  0.00  0.00     0.014 A 
ATOM     21  C6  <1> d          13.444  44.398  27.012  0.00  0.00     0.024 A 
BRANCH  19  22
ATOM     22  C1  <1> d          13.864  45.019  23.119  0.00  0.00     0.417 C 
ATOM     23  F1  <1> d          15.155  45.564  23.282  0.00  0.00    -0.166 F 
ATOM     24  F2  <1> d          13.975  43.746  22.512  0.00  0.00    -0.166 F 
ATOM     25  F3  <1> d          13.086  45.864  22.322  0.00  0.00    -0.166 F 
ENDBRANCH  19  22
ENDBRANCH   1  16
TORSDOF 2
ENDMDL
MODEL 4
REMARK VINA RESULT:      -8.6      2.272      4.044
REMARK  2 active torsions:
REMARK  status: ('A' for Active; 'I' for Inactive)
REMARK    1  A    between atoms: C2_5  and  C1_2 
REMARK    2  A    between atoms: C7_10  and  N1_11 
REMARK       I    between atoms: N1_11  and  C8_12 
ROOT
ATOM      1  N1  <1> d          15.014  41.416  26.542  0.00  0.00    -0.284 N 
ATOM      2  C8  <1> d          14.926  40.651  27.772  0.00  0.00     0.220 A 
ATOM      3  N2  <1> d          15.779  39.652  27.917  0.00  0.00    -0.223 NA
ATOM      4  C9  <1> d          15.739  38.900  29.072  0.00  0.00     0.116 A 
ATOM      5  C10 <1> d          14.827  39.115  30.141  0.00  0.00     0.049 A 
ATOM      6  N3  <1> d          14.026  40.933  28.728  0.00  0.00    -0.214 NA
ATOM      7  C11 <1> d          13.911  40.217  29.931  0.00  0.00     0.084 A 
ATOM      8  C12 <1> d          12.880  40.659  30.837  0.00  0.00     0.060 A 
ATOM      9  S1  <1> d          11.905  42.063  30.267  0.00  0.00    -0.071 SA
ATOM     10  C13 <1> d          12.387  40.283  32.115  0.00  0.00     0.055 A 
ATOM     11  C14 <1> d          12.901  39.120  33.007  0.00  0.00     0.067 C 
ATOM     12  N4  <1> d          11.318  41.066  32.603  0.00  0.00    -0.249 NA
ATOM     13  C15 <1> d          11.007  42.023  31.689  0.00  0.00     0.076 A 
ATOM     14  C16 <1> d           9.940  43.075  31.784  0.00  0.00     0.074 C 
ATOM     15  H5  <1> d          15.745  41.028  25.978  0.00  0.00     0.155 HD
ENDROOT
BRANCH   1  16
ATOM     16  C7  <1> d          14.417  42.563  25.814  0.00  0.00     0.034 A 
ATOM     17  C4  <1> d          14.059  43.826  26.539  0.00  0.00     0.024 A 
ATOM     18  C3  <1> d          13.453  44.918  25.825  0.00  0.00     0.014 A 
ATOM     19  C2  <1> d          13.191  44.795  24.401  0.00  0.00     0.055 A 
ATOM     20  C5  <1> d          13.559  43.562  23.710  0.00  0.00     0.014 A 
ATOM     21  C6  <1> d          14.153  42.486  24.406  0.00  0.00     0.024 A 
BRANCH  19  22
ATOM     22  C1  <1> d          12.485  45.990  23.597  0.00  0.00     0.417 C 
ATOM     23  F1  <1> d          13.015  47.206  24.075  0.00  0.00    -0.166 F 
ATOM     24  F2  <1> d          12.754  45.882  22.212  0.00  0.00    -0.166 F 
ATOM     25  F3  <1> d          11.105  45.949  23.820  0.00  0.00    -0.166 F 
ENDBRANCH  19  22
ENDBRANCH   1  16
TORSDOF 2
ENDMDL
MODEL 5
REMARK VINA RESULT:      -8.4      4.193      7.752
REMARK  2 active torsions:
REMARK  status: ('A' for Active; 'I' for Inactive)
REMARK    1  A    between atoms: C2_5  and  C1_2 
REMARK    2  A    between atoms: C7_10  and  N1_11 
REMARK       I    between atoms: N1_11  and  C8_12 
ROOT
ATOM      1  N1  <1> d          11.087  43.635  28.002  0.00  0.00    -0.284 N 
ATOM      2  C8  <1> d          10.849  44.522  26.878  0.00  0.00     0.220 A 
ATOM      3  N2  <1> d           9.786  45.305  26.949  0.00  0.00    -0.223 NA
ATOM      4  C9  <1> d           9.521  46.170  25.908  0.00  0.00     0.116 A 
ATOM      5  C10 <1> d          10.315  46.285  24.735  0.00  0.00     0.049 A 
ATOM      6  N3  <1> d          11.661  44.558  25.809  0.00  0.00    -0.214 NA
ATOM      7  C11 <1> d          11.464  45.403  24.704  0.00  0.00     0.084 A 
ATOM      8  C12 <1> d          12.436  45.298  23.644  0.00  0.00     0.060 A 
ATOM      9  S1  <1> d          13.745  44.090  23.917  0.00  0.00    -0.071 SA
ATOM     10  C13 <1> d          12.666  45.904  22.380  0.00  0.00     0.055 A 
ATOM     11  C14 <1> d          11.801  47.000  21.701  0.00  0.00     0.067 C 
ATOM     12  N4  <1> d          13.808  45.444  21.689  0.00  0.00    -0.249 NA
ATOM     13  C15 <1> d          14.429  44.490  22.432  0.00  0.00     0.076 A 
ATOM     14  C16 <1> d          15.677  43.726  22.094  0.00  0.00     0.074 C 
ATOM     15  H5  <1> d          10.359  43.773  28.674  0.00  0.00     0.155 HD
ENDROOT
BRANCH   1  16
ATOM     16  C7  <1> d          12.015  42.599  28.518  0.00  0.00     0.034 A 
ATOM     17  C4  <1> d          13.095  42.035  27.642  0.00  0.00     0.024 A 
ATOM     18  C3  <1> d          13.968  41.010  28.147  0.00  0.00     0.014 A 
ATOM     19  C2  <1> d          13.804  40.525  29.508  0.00  0.00     0.055 A 
ATOM     20  C5  <1> d          12.757  41.097  30.350  0.00  0.00     0.014 A 
ATOM     21  C6  <1> d          11.896  42.103  29.858  0.00  0.00     0.024 A 
BRANCH  19  22
ATOM     22  C1  <1> d          14.748  39.359  30.075  0.00  0.00     0.417 C 
ATOM     23  F1  <1> d          15.721  39.073  29.094  0.00  0.00    -0.166 F 
ATOM     24  F2  <1> d          15.398  39.780  31.260  0.00  0.00    -0.166 F 
ATOM     25  F3  <1> d          13.978  38.220  30.331  0.00  0.00    -0.166 F 
ENDBRANCH  19  22
ENDBRANCH   1  16
TORSDOF 2
ENDMDL
MODEL 6
REMARK VINA RESULT:      -8.2      5.047      8.685
REMARK  2 active torsions:
REMARK  status: ('A' for Active; 'I' for Inactive)
REMARK    1  A    between atoms: C2_5  and  C1_2 
REMARK    2  A    between atoms: C7_10  and  N1_11 
REMARK       I    between atoms: N1_11  and  C8_12 
ROOT
ATOM      1  N1  <1> d          14.763  42.044  27.488  0.00  0.00    -0.284 N 
ATOM      2  C8  <1> d          14.552  42.894  26.331  0.00  0.00     0.220 A 
ATOM      3  N2  <1> d          15.537  42.960  25.451  0.00  0.00    -0.223 NA
ATOM      4  C9  <1> d          15.382  43.750  24.332  0.00  0.00     0.116 A 
ATOM      5  C10 <1> d          14.222  44.519  24.044  0.00  0.00     0.049 A 
ATOM      6  N3  <1> d          13.415  43.584  26.146  0.00  0.00    -0.214 NA
ATOM      7  C11 <1> d          13.175  44.415  25.040  0.00  0.00     0.084 A 
ATOM      8  C12 <1> d          11.898  45.086  25.015  0.00  0.00     0.060 A 
ATOM      9  S1  <1> d          10.822  44.744  26.419  0.00  0.00    -0.071 SA
ATOM     10  C13 <1> d          11.214  45.987  24.156  0.00  0.00     0.055 A 
ATOM     11  C14 <1> d          11.737  46.581  22.820  0.00  0.00     0.067 C 
ATOM     12  N4  <1> d           9.923  46.365  24.586  0.00  0.00    -0.249 NA
ATOM     13  C15 <1> d           9.644  45.753  25.766  0.00  0.00     0.076 A 
ATOM     14  C16 <1> d           8.391  45.862  26.588  0.00  0.00     0.074 C 
ATOM     15  H5  <1> d          15.673  41.635  27.421  0.00  0.00     0.155 HD
ENDROOT
BRANCH   1  16
ATOM     16  C7  <1> d          14.120  41.559  28.736  0.00  0.00     0.034 A 
ATOM     17  C4  <1> d          13.002  42.332  29.370  0.00  0.00     0.024 A 
ATOM     18  C3  <1> d          12.410  41.866  30.595  0.00  0.00     0.014 A 
ATOM     19  C2  <1> d          12.895  40.643  31.213  0.00  0.00     0.055 A 
ATOM     20  C5  <1> d          13.975  39.897  30.573  0.00  0.00     0.014 A 
ATOM     21  C6  <1> d          14.561  40.351  29.371  0.00  0.00     0.024 A 
BRANCH  19  22
ATOM     22  C1  <1> d          12.268  40.127  32.597  0.00  0.00     0.417 C 
ATOM     23  F1  <1> d          12.518  38.742  32.695  0.00  0.00    -0.166 F 
ATOM     24  F2  <1> d          12.877  40.783  33.692  0.00  0.00    -0.166 F 
ATOM     25  F3  <1> d          10.890  40.366  32.602  0.00  0.00    -0.166 F 
ENDBRANCH  19  22
ENDBRANCH   1  16
TORSDOF 2
ENDMDL
MODEL 7
REMARK VINA RESULT:      -8.0      4.708      8.001
REMARK  2 active torsions:
REMARK  status: ('A' for Active; 'I' for Inactive)
REMARK    1  A    between atoms: C2_5  and  C1_2 
REMARK    2  A    between atoms: C7_10  and  N1_11 
REMARK       I    between atoms: N1_11  and  C8_12 
ROOT
ATOM      1  N1  <1> d          10.243  44.523  28.563  0.00  0.00    -0.284 N 
ATOM      2  C8  <1> d          10.162  45.151  27.257  0.00  0.00     0.220 A 
ATOM      3  N2  <1> d           9.064  45.837  26.991  0.00  0.00    -0.223 NA
ATOM      4  C9  <1> d           8.942  46.458  25.766  0.00  0.00     0.116 A 
ATOM      5  C10 <1> d           9.926  46.414  24.741  0.00  0.00     0.049 A 
ATOM      6  N3  <1> d          11.149  45.053  26.352  0.00  0.00    -0.214 NA
ATOM      7  C11 <1> d          11.108  45.648  25.081  0.00  0.00     0.084 A 
ATOM      8  C12 <1> d          12.257  45.427  24.238  0.00  0.00     0.060 A 
ATOM      9  S1  <1> d          13.560  44.415  24.965  0.00  0.00    -0.071 SA
ATOM     10  C13 <1> d          12.676  45.797  22.932  0.00  0.00     0.055 A 
ATOM     11  C14 <1> d          11.889  46.660  21.911  0.00  0.00     0.067 C 
ATOM     12  N4  <1> d          13.947  45.314  22.548  0.00  0.00    -0.249 NA
ATOM     13  C15 <1> d          14.475  44.581  23.562  0.00  0.00     0.076 A 
ATOM     14  C16 <1> d          15.803  43.879  23.597  0.00  0.00     0.074 C 
ATOM     15  H5  <1> d           9.401  44.722  29.064  0.00  0.00     0.155 HD
ENDROOT
BRANCH   1  16
ATOM     16  C7  <1> d          11.119  43.692  29.426  0.00  0.00     0.034 A 
ATOM     17  C4  <1> d          12.444  43.201  28.923  0.00  0.00     0.024 A 
ATOM     18  C3  <1> d          13.269  42.372  29.761  0.00  0.00     0.014 A 
ATOM     19  C2  <1> d          12.816  42.013  31.094  0.00  0.00     0.055 A 
ATOM     20  C5  <1> d          11.529  42.512  31.571  0.00  0.00     0.014 A 
ATOM     21  C6  <1> d          10.715  43.326  30.752  0.00  0.00     0.024 A 
BRANCH  19  22
ATOM     22  C1  <1> d          13.708  41.061  32.028  0.00  0.00     0.417 C 
ATOM     23  F1  <1> d          14.195  41.839  33.100  0.00  0.00    -0.166 F 
ATOM     24  F2  <1> d          12.926  40.002  32.546  0.00  0.00    -0.166 F 
ATOM     25  F3  <1> d          14.776  40.549  31.286  0.00  0.00    -0.166 F 
ENDBRANCH  19  22
ENDBRANCH   1  16
TORSDOF 2
ENDMDL
MODEL 8
REMARK VINA RESULT:      -8.0      2.699      5.079
REMARK  2 active torsions:
REMARK  status: ('A' for Active; 'I' for Inactive)
REMARK    1  A    between atoms: C2_5  and  C1_2 
REMARK    2  A    between atoms: C7_10  and  N1_11 
REMARK       I    between atoms: N1_11  and  C8_12 
ROOT
ATOM      1  N1  <1> d          13.977  43.015  27.501  0.00  0.00    -0.284 N 
ATOM      2  C8  <1> d          13.130  43.087  28.677  0.00  0.00     0.220 A 
ATOM      3  N2  <1> d          13.538  42.431  29.749  0.00  0.00    -0.223 NA
ATOM      4  C9  <1> d          12.770  42.474  30.893  0.00  0.00     0.116 A 
ATOM      5  C10 <1> d          11.543  43.181  31.013  0.00  0.00     0.049 A 
ATOM      6  N3  <1> d          11.983  43.785  28.692  0.00  0.00    -0.214 NA
ATOM      7  C11 <1> d          11.138  43.879  29.810  0.00  0.00     0.084 A 
ATOM      8  C12 <1> d           9.942  44.667  29.638  0.00  0.00     0.060 A 
ATOM      9  S1  <1> d           9.733  45.400  28.005  0.00  0.00    -0.071 SA
ATOM     10  C13 <1> d           8.825  45.048  30.429  0.00  0.00     0.055 A 
ATOM     11  C14 <1> d           8.550  44.655  31.905  0.00  0.00     0.067 C 
ATOM     12  N4  <1> d           7.880  45.872  29.778  0.00  0.00    -0.249 NA
ATOM     13  C15 <1> d           8.286  46.102  28.502  0.00  0.00     0.076 A 
ATOM     14  C16 <1> d           7.596  46.921  27.449  0.00  0.00     0.074 C 
ATOM     15  H5  <1> d          14.768  42.441  27.714  0.00  0.00     0.155 HD
ENDROOT
BRANCH   1  16
ATOM     16  C7  <1> d          14.099  43.481  26.098  0.00  0.00     0.034 A 
ATOM     17  C4  <1> d          13.546  44.813  25.684  0.00  0.00     0.024 A 
ATOM     18  C3  <1> d          13.644  45.238  24.313  0.00  0.00     0.014 A 
ATOM     19  C2  <1> d          14.284  44.376  23.333  0.00  0.00     0.055 A 
ATOM     20  C5  <1> d          14.829  43.090  23.758  0.00  0.00     0.014 A 
ATOM     21  C6  <1> d          14.733  42.667  25.102  0.00  0.00     0.024 A 
BRANCH  19  22
ATOM     22  C1  <1> d          14.372  44.820  21.794  0.00  0.00     0.417 C 
ATOM     23  F1  <1> d          15.570  45.546  21.621  0.00  0.00    -0.166 F 
ATOM     24  F2  <1> d          14.396  43.684  20.951  0.00  0.00    -0.166 F 
ATOM     25  F3  <1> d          13.275  45.628  21.478  0.00  0.00    -0.166 F 
ENDBRANCH  19  22
ENDBRANCH   1  16
TORSDOF 2
ENDMDL
MODEL 9
REMARK VINA RESULT:      -7.6      2.374      4.457
REMARK  2 active torsions:
REMARK  status: ('A' for Active; 'I' for Inactive)
REMARK    1  A    between atoms: C2_5  and  C1_2 
REMARK    2  A    between atoms: C7_10  and  N1_11 
REMARK       I    between atoms: N1_11  and  C8_12 
ROOT
ATOM      1  N1  <1> d          14.589  41.558  28.280  0.00  0.00    -0.284 N 
ATOM      2  C8  <1> d          14.041  41.112  29.548  0.00  0.00     0.220 A 
ATOM      3  N2  <1> d          14.686  40.140  30.169  0.00  0.00    -0.223 NA
ATOM      4  C9  <1> d          14.208  39.686  31.379  0.00  0.00     0.116 A 
ATOM      5  C10 <1> d          13.046  40.189  32.026  0.00  0.00     0.049 A 
ATOM      6  N3  <1> d          12.932  41.653  30.079  0.00  0.00    -0.214 NA
ATOM      7  C11 <1> d          12.373  41.249  31.303  0.00  0.00     0.084 A 
ATOM      8  C12 <1> d          11.174  41.939  31.711  0.00  0.00     0.060 A 
ATOM      9  S1  <1> d          10.591  43.208  30.573  0.00  0.00    -0.071 SA
ATOM     10  C13 <1> d          10.275  41.899  32.811  0.00  0.00     0.055 A 
ATOM     11  C14 <1> d          10.352  40.960  34.044  0.00  0.00     0.067 C 
ATOM     12  N4  <1> d           9.208  42.822  32.749  0.00  0.00    -0.249 NA
ATOM     13  C15 <1> d           9.305  43.546  31.604  0.00  0.00     0.076 A 
ATOM     14  C16 <1> d           8.391  44.637  31.124  0.00  0.00     0.074 C 
ATOM     15  H5  <1> d          15.405  41.017  28.079  0.00  0.00     0.155 HD
ENDROOT
BRANCH   1  16
ATOM     16  C7  <1> d          14.380  42.525  27.173  0.00  0.00     0.034 A 
ATOM     17  C4  <1> d          15.263  42.500  25.960  0.00  0.00     0.024 A 
ATOM     18  C3  <1> d          15.068  43.463  24.910  0.00  0.00     0.014 A 
ATOM     19  C2  <1> d          14.012  44.455  25.024  0.00  0.00     0.055 A 
ATOM     20  C5  <1> d          13.154  44.453  26.206  0.00  0.00     0.014 A 
ATOM     21  C6  <1> d          13.342  43.511  27.242  0.00  0.00     0.024 A 
BRANCH  19  22
ATOM     22  C1  <1> d          13.802  45.556  23.877  0.00  0.00     0.417 C 
ATOM     23  F1  <1> d          13.583  46.800  24.506  0.00  0.00    -0.166 F 
ATOM     24  F2  <1> d          14.955  45.649  23.063  0.00  0.00    -0.166 F 
ATOM     25  F3  <1> d          12.692  45.212  23.098  0.00  0.00    -0.166 F 
ENDBRANCH  19  22
ENDBRANCH   1  16
TORSDOF 2
ENDMDL
MODEL 10
REMARK VINA RESULT:      -7.3      4.341      7.648
REMARK  2 active torsions:
REMARK  status: ('A' for Active; 'I' for Inactive)
REMARK    1  A    between atoms: C2_5  and  C1_2 
REMARK    2  A    between atoms: C7_10  and  N1_11 
REMARK       I    between atoms: N1_11  and  C8_12 
ROOT
ATOM      1  N1  <1> d          11.811  42.444  30.216  0.00  0.00    -0.284 N 
ATOM      2  C8  <1> d          11.290  43.417  29.273  0.00  0.00     0.220 A 
ATOM      3  N2  <1> d          10.273  44.158  29.680  0.00  0.00    -0.223 NA
ATOM      4  C9  <1> d           9.747  45.101  28.823  0.00  0.00     0.116 A 
ATOM      5  C10 <1> d          10.218  45.342  27.504  0.00  0.00     0.049 A 
ATOM      6  N3  <1> d          11.806  43.572  28.043  0.00  0.00    -0.214 NA
ATOM      7  C11 <1> d          11.329  44.503  27.105  0.00  0.00     0.084 A 
ATOM      8  C12 <1> d          12.003  44.520  25.830  0.00  0.00     0.060 A 
ATOM      9  S1  <1> d          13.349  43.335  25.655  0.00  0.00    -0.071 SA
ATOM     10  C13 <1> d          11.901  45.241  24.610  0.00  0.00     0.055 A 
ATOM     11  C14 <1> d          10.884  46.364  24.274  0.00  0.00     0.067 C 
ATOM     12  N4  <1> d          12.836  44.878  23.616  0.00  0.00    -0.249 NA
ATOM     13  C15 <1> d          13.632  43.884  24.089  0.00  0.00     0.076 A 
ATOM     14  C16 <1> d          14.761  43.191  23.380  0.00  0.00     0.074 C 
ATOM     15  H5  <1> d          11.275  42.500  31.059  0.00  0.00     0.155 HD
ENDROOT
BRANCH   1  16
ATOM     16  C7  <1> d          12.848  41.397  30.385  0.00  0.00     0.034 A 
ATOM     17  C4  <1> d          13.688  40.957  29.222  0.00  0.00     0.024 A 
ATOM     18  C3  <1> d          14.669  39.919  29.396  0.00  0.00     0.014 A 
ATOM     19  C2  <1> d          14.846  39.302  30.699  0.00  0.00     0.055 A 
ATOM     20  C5  <1> d          14.029  39.754  31.822  0.00  0.00     0.014 A 
ATOM     21  C6  <1> d          13.064  40.771  31.657  0.00  0.00     0.024 A 
BRANCH  19  22
ATOM     22  C1  <1> d          15.912  38.120  30.902  0.00  0.00     0.417 C 
ATOM     23  F1  <1> d          16.549  37.894  29.663  0.00  0.00    -0.166 F 
ATOM     24  F2  <1> d          16.886  38.490  31.859  0.00  0.00    -0.166 F 
ATOM     25  F3  <1> d          15.249  36.961  31.316  0.00  0.00    -0.166 F 
ENDBRANCH  19  22
ENDBRANCH   1  16
TORSDOF 2
ENDMDL
