MODEL 1
REMARK VINA RESULT:      -9.4      0.000      0.000
REMARK  3 active torsions:
REMARK  status: ('A' for Active; 'I' for Inactive)
REMARK       I    between atoms: C9_12  and  N5_15 
REMARK    1  A    between atoms: N5_15  and  N6_16 
REMARK    2  A    between atoms: C10_17  and  C11_18 
REMARK    3  A    between atoms: C14_21  and  N7_22 
ROOT
ATOM      1  C1   11 d          -6.984 208.642 113.494  0.00  0.00     0.138 A 
ATOM      2  C2   11 d          -6.051 208.714 114.506  0.00  0.00     0.026 A 
ATOM      3  C3   11 d          -6.702 209.271 115.602  0.00  0.00     0.046 A 
ATOM      4  C4   11 d          -6.031 209.471 116.814  0.00  0.00     0.032 A 
ATOM      5  C5   11 d          -4.673 209.097 116.892  0.00  0.00     0.021 A 
ATOM      6  C6   11 d          -4.013 208.538 115.772  0.00  0.00     0.011 A 
ATOM      7 Br1   11 d          -2.155 208.044 115.905  0.00  0.00    -0.051 Br
ATOM      8  C7   11 d          -4.705 208.338 114.558  0.00  0.00     0.035 A 
ATOM      9  N1   11 d          -7.988 209.543 115.276  0.00  0.00    -0.338 N 
ATOM     10  C8   11 d          -8.164 209.162 113.991  0.00  0.00     0.179 A 
ATOM     11  N2   11 d          -9.275 209.223 113.217  0.00  0.00    -0.040 NA
ATOM     12  C9   11 d          -9.204 208.742 111.934  0.00  0.00     0.763 A 
ATOM     13  N3   11 d          -8.011 208.223 111.471  0.00  0.00     0.046 NA
ATOM     14  N4   11 d          -6.922 208.175 112.220  0.00  0.00    -0.129 NA
ATOM     15  N5   11 d         -10.339 208.776 111.145  0.00  0.00    -0.104 N 
ATOM     16  H4   11 d          -8.719 209.964 115.900  0.00  0.00     0.167 HD
ATOM     17  H5   11 d         -11.124 209.302 111.451  0.00  0.00     0.208 HD
ENDROOT
BRANCH  15  18
ATOM     18  N6   11 d         -10.424 208.115 110.004  0.00  0.00    -0.172 NA
ATOM     19  C10  11 d         -11.483 207.392 109.695  0.00  0.00     0.150 C 
BRANCH  19  20
ATOM     20  C11  11 d         -12.720 207.120 110.500  0.00  0.00    -0.017 A 
ATOM     21  C12  11 d         -12.738 206.655 111.833  0.00  0.00     0.015 A 
ATOM     22  C13  11 d         -13.953 206.420 112.495  0.00  0.00     0.037 A 
ATOM     23  C14  11 d         -15.192 206.621 111.843  0.00  0.00     0.102 A 
ATOM     24  C15  11 d         -15.168 207.067 110.505  0.00  0.00     0.037 A 
ATOM     25  C16  11 d         -13.954 207.311 109.847  0.00  0.00     0.015 A 
BRANCH  23  26
ATOM     26  N7   11 d         -16.405 206.380 112.492  0.00  0.00    -0.116 N 
ATOM     27  O1   11 d         -16.428 206.081 113.598  0.00  0.00    -0.532 OA
ATOM     28  O2   11 d         -17.506 206.538 111.895  0.00  0.00    -0.532 OA
ENDBRANCH  23  26
ENDBRANCH  19  20
ENDBRANCH  15  18
TORSDOF 3
ENDMDL
MODEL 2
REMARK VINA RESULT:      -9.3      0.892      1.088
REMARK  3 active torsions:
REMARK  status: ('A' for Active; 'I' for Inactive)
REMARK       I    between atoms: C9_12  and  N5_15 
REMARK    1  A    between atoms: N5_15  and  N6_16 
REMARK    2  A    between atoms: C10_17  and  C11_18 
REMARK    3  A    between atoms: C14_21  and  N7_22 
ROOT
ATOM      1  C1   11 d          -6.604 208.849 113.681  0.00  0.00     0.138 A 
ATOM      2  C2   11 d          -5.654 208.932 114.677  0.00  0.00     0.026 A 
ATOM      3  C3   11 d          -6.232 209.660 115.712  0.00  0.00     0.046 A 
ATOM      4  C4   11 d          -5.529 209.916 116.894  0.00  0.00     0.032 A 
ATOM      5  C5   11 d          -4.212 209.420 117.006  0.00  0.00     0.021 A 
ATOM      6  C6   11 d          -3.626 208.685 115.947  0.00  0.00     0.011 A 
ATOM      7 Br1   11 d          -1.824 208.025 116.124  0.00  0.00    -0.051 Br
ATOM      8  C7   11 d          -4.351 208.431 114.763  0.00  0.00     0.035 A 
ATOM      9  N1   11 d          -7.490 210.023 115.364  0.00  0.00    -0.338 N 
ATOM     10  C8   11 d          -7.720 209.532 114.126  0.00  0.00     0.179 A 
ATOM     11  N2   11 d          -8.830 209.623 113.353  0.00  0.00    -0.040 NA
ATOM     12  C9   11 d          -8.825 209.008 112.127  0.00  0.00     0.763 A 
ATOM     13  N3   11 d          -7.694 208.329 111.716  0.00  0.00     0.046 NA
ATOM     14  N4   11 d          -6.605 208.251 112.462  0.00  0.00    -0.129 NA
ATOM     15  N5   11 d          -9.961 209.074 111.343  0.00  0.00    -0.104 N 
ATOM     16  H4   11 d          -8.167 210.577 115.944  0.00  0.00     0.167 HD
ATOM     17  H5   11 d         -10.687 209.704 111.595  0.00  0.00     0.208 HD
ENDROOT
BRANCH  15  18
ATOM     18  N6   11 d         -10.127 208.311 110.277  0.00  0.00    -0.172 NA
ATOM     19  C10  11 d         -11.070 207.392 110.218  0.00  0.00     0.150 C 
BRANCH  19  20
ATOM     20  C11  11 d         -12.067 206.980 111.260  0.00  0.00    -0.017 A 
ATOM     21  C12  11 d         -11.767 206.708 112.612  0.00  0.00     0.015 A 
ATOM     22  C13  11 d         -12.775 206.319 113.508  0.00  0.00     0.037 A 
ATOM     23  C14  11 d         -14.115 206.167 113.080  0.00  0.00     0.102 A 
ATOM     24  C15  11 d         -14.406 206.420 111.723  0.00  0.00     0.037 A 
ATOM     25  C16  11 d         -13.400 206.819 110.832  0.00  0.00     0.015 A 
BRANCH  23  26
ATOM     26  N7   11 d         -15.122 205.769 113.963  0.00  0.00    -0.116 N 
ATOM     27  O1   11 d         -14.865 205.411 115.020  0.00  0.00    -0.532 OA
ATOM     28  O2   11 d         -16.339 205.847 113.640  0.00  0.00    -0.532 OA
ENDBRANCH  23  26
ENDBRANCH  19  20
ENDBRANCH  15  18
TORSDOF 3
ENDMDL
MODEL 3
REMARK VINA RESULT:      -9.0      5.489      9.828
REMARK  3 active torsions:
REMARK  status: ('A' for Active; 'I' for Inactive)
REMARK       I    between atoms: C9_12  and  N5_15 
REMARK    1  A    between atoms: N5_15  and  N6_16 
REMARK    2  A    between atoms: C10_17  and  C11_18 
REMARK    3  A    between atoms: C14_21  and  N7_22 
ROOT
ATOM      1  C1   11 d         -12.056 207.535 112.934  0.00  0.00     0.138 A 
ATOM      2  C2   11 d         -13.172 207.108 112.247  0.00  0.00     0.026 A 
ATOM      3  C3   11 d         -12.797 207.008 110.911  0.00  0.00     0.046 A 
ATOM      4  C4   11 d         -13.706 206.580 109.937  0.00  0.00     0.032 A 
ATOM      5  C5   11 d         -15.019 206.261 110.346  0.00  0.00     0.021 A 
ATOM      6  C6   11 d         -15.398 206.372 111.705  0.00  0.00     0.011 A 
ATOM      7 Br1   11 d         -17.198 205.936 112.235  0.00  0.00    -0.051 Br
ATOM      8  C7   11 d         -14.467 206.799 112.677  0.00  0.00     0.035 A 
ATOM      9  N1   11 d         -11.498 207.369 110.776  0.00  0.00    -0.338 N 
ATOM     10  C8   11 d         -11.043 207.692 112.007  0.00  0.00     0.179 A 
ATOM     11  N2   11 d          -9.810 208.107 112.390  0.00  0.00    -0.040 NA
ATOM     12  C9   11 d          -9.589 208.350 113.722  0.00  0.00     0.763 A 
ATOM     13  N3   11 d         -10.622 208.178 114.623  0.00  0.00     0.046 NA
ATOM     14  N4   11 d         -11.829 207.787 114.249  0.00  0.00    -0.129 NA
ATOM     15  N5   11 d          -8.329 208.749 114.126  0.00  0.00    -0.104 N 
ATOM     16  H4   11 d         -10.942 207.390 109.887  0.00  0.00     0.167 HD
ATOM     17  H5   11 d          -7.664 209.021 113.439  0.00  0.00     0.208 HD
ENDROOT
BRANCH  15  18
ATOM     18  N6   11 d          -7.966 208.761 115.397  0.00  0.00    -0.172 NA
ATOM     19  C10  11 d          -6.700 208.743 115.761  0.00  0.00     0.150 C 
BRANCH  19  20
ATOM     20  C11  11 d          -5.465 208.662 114.913  0.00  0.00    -0.017 A 
ATOM     21  C12  11 d          -4.975 209.697 114.087  0.00  0.00     0.015 A 
ATOM     22  C13  11 d          -3.812 209.516 113.322  0.00  0.00     0.037 A 
ATOM     23  C14  11 d          -3.109 208.289 113.338  0.00  0.00     0.102 A 
ATOM     24  C15  11 d          -3.614 207.251 114.150  0.00  0.00     0.037 A 
ATOM     25  C16  11 d          -4.770 207.436 114.921  0.00  0.00     0.015 A 
BRANCH  23  26
ATOM     26  N7   11 d          -1.957 208.098 112.572  0.00  0.00    -0.116 N 
ATOM     27  O1   11 d          -1.903 208.478 111.493  0.00  0.00    -0.532 OA
ATOM     28  O2   11 d          -0.931 207.552 113.063  0.00  0.00    -0.532 OA
ENDBRANCH  23  26
ENDBRANCH  19  20
ENDBRANCH  15  18
TORSDOF 3
ENDMDL
MODEL 4
REMARK VINA RESULT:      -8.9      6.690      8.523
REMARK  3 active torsions:
REMARK  status: ('A' for Active; 'I' for Inactive)
REMARK       I    between atoms: C9_12  and  N5_15 
REMARK    1  A    between atoms: N5_15  and  N6_16 
REMARK    2  A    between atoms: C10_17  and  C11_18 
REMARK    3  A    between atoms: C14_21  and  N7_22 
ROOT
ATOM      1  C1   11 d         -11.922 207.662 115.798  0.00  0.00     0.138 A 
ATOM      2  C2   11 d         -11.254 207.855 114.608  0.00  0.00     0.026 A 
ATOM      3  C3   11 d         -12.131 207.470 113.599  0.00  0.00     0.046 A 
ATOM      4  C4   11 d         -11.762 207.557 112.252  0.00  0.00     0.032 A 
ATOM      5  C5   11 d         -10.472 208.038 111.945  0.00  0.00     0.021 A 
ATOM      6  C6   11 d          -9.581 208.422 112.975  0.00  0.00     0.011 A 
ATOM      7 Br1   11 d          -7.822 209.070 112.528  0.00  0.00    -0.051 Br
ATOM      8  C7   11 d          -9.970 208.334 114.329  0.00  0.00     0.035 A 
ATOM      9  N1   11 d         -13.295 207.046 114.146  0.00  0.00    -0.338 N 
ATOM     10  C8   11 d         -13.171 207.160 115.488  0.00  0.00     0.179 A 
ATOM     11  N2   11 d         -14.065 206.869 116.465  0.00  0.00    -0.040 NA
ATOM     12  C9   11 d         -13.705 207.101 117.768  0.00  0.00     0.763 A 
ATOM     13  N3   11 d         -12.450 207.609 118.044  0.00  0.00     0.046 NA
ATOM     14  N4   11 d         -11.572 207.880 117.092  0.00  0.00    -0.129 NA
ATOM     15  N5   11 d         -14.618 206.831 118.770  0.00  0.00    -0.104 N 
ATOM     16  H4   11 d         -14.141 206.698 113.632  0.00  0.00     0.167 HD
ATOM     17  H5   11 d         -15.439 206.316 118.550  0.00  0.00     0.208 HD
ENDROOT
BRANCH  15  18
ATOM     18  N6   11 d         -14.449 207.254 120.011  0.00  0.00    -0.172 NA
ATOM     19  C10  11 d         -15.202 206.824 121.003  0.00  0.00     0.150 C 
BRANCH  19  20
ATOM     20  C11  11 d         -16.364 205.875 120.976  0.00  0.00    -0.017 A 
ATOM     21  C12  11 d         -16.272 204.481 120.773  0.00  0.00     0.015 A 
ATOM     22  C13  11 d         -17.424 203.680 120.755  0.00  0.00     0.037 A 
ATOM     23  C14  11 d         -18.710 204.245 120.916  0.00  0.00     0.102 A 
ATOM     24  C15  11 d         -18.799 205.641 121.098  0.00  0.00     0.037 A 
ATOM     25  C16  11 d         -17.646 206.439 121.127  0.00  0.00     0.015 A 
BRANCH  23  26
ATOM     26  N7   11 d         -19.863 203.456 120.889  0.00  0.00    -0.116 N 
ATOM     27  O1   11 d         -20.658 203.610 120.079  0.00  0.00    -0.532 OA
ATOM     28  O2   11 d         -20.031 202.519 121.718  0.00  0.00    -0.532 OA
ENDBRANCH  23  26
ENDBRANCH  19  20
ENDBRANCH  15  18
TORSDOF 3
ENDMDL
MODEL 5
REMARK VINA RESULT:      -8.7      5.383      9.316
REMARK  3 active torsions:
REMARK  status: ('A' for Active; 'I' for Inactive)
REMARK       I    between atoms: C9_12  and  N5_15 
REMARK    1  A    between atoms: N5_15  and  N6_16 
REMARK    2  A    between atoms: C10_17  and  C11_18 
REMARK    3  A    between atoms: C14_21  and  N7_22 
ROOT
ATOM      1  C1   11 d         -10.652 207.923 113.805  0.00  0.00     0.138 A 
ATOM      2  C2   11 d         -11.825 207.244 113.551  0.00  0.00     0.026 A 
ATOM      3  C3   11 d         -12.399 206.976 114.789  0.00  0.00     0.046 A 
ATOM      4  C4   11 d         -13.621 206.302 114.886  0.00  0.00     0.032 A 
ATOM      5  C5   11 d         -14.253 205.894 113.692  0.00  0.00     0.021 A 
ATOM      6  C6   11 d         -13.661 206.163 112.435  0.00  0.00     0.011 A 
ATOM      7 Br1   11 d         -14.542 205.589 110.820  0.00  0.00    -0.051 Br
ATOM      8  C7   11 d         -12.430 206.849 112.353  0.00  0.00     0.035 A 
ATOM      9  N1   11 d         -11.605 207.463 115.773  0.00  0.00    -0.338 N 
ATOM     10  C8   11 d         -10.538 208.040 115.177  0.00  0.00     0.179 A 
ATOM     11  N2   11 d          -9.474 208.670 115.733  0.00  0.00    -0.040 NA
ATOM     12  C9   11 d          -8.522 209.201 114.901  0.00  0.00     0.763 A 
ATOM     13  N3   11 d          -8.669 209.071 113.534  0.00  0.00     0.046 NA
ATOM     14  N4   11 d          -9.700 208.446 112.989  0.00  0.00    -0.129 NA
ATOM     15  N5   11 d          -7.447 209.867 115.458  0.00  0.00    -0.104 N 
ATOM     16  H4   11 d         -11.782 207.411 116.806  0.00  0.00     0.167 HD
ATOM     17  H5   11 d          -7.288 209.797 116.436  0.00  0.00     0.208 HD
ENDROOT
BRANCH  15  18
ATOM     18  N6   11 d          -6.630 210.615 114.737  0.00  0.00    -0.172 NA
ATOM     19  C10  11 d          -5.399 210.235 114.460  0.00  0.00     0.150 C 
BRANCH  19  20
ATOM     20  C11  11 d          -4.661 209.001 114.891  0.00  0.00    -0.017 A 
ATOM     21  C12  11 d          -4.656 207.772 114.198  0.00  0.00     0.015 A 
ATOM     22  C13  11 d          -3.941 206.671 114.692  0.00  0.00     0.037 A 
ATOM     23  C14  11 d          -3.222 206.752 115.908  0.00  0.00     0.102 A 
ATOM     24  C15  11 d          -3.247 207.977 116.607  0.00  0.00     0.037 A 
ATOM     25  C16  11 d          -3.953 209.080 116.107  0.00  0.00     0.015 A 
BRANCH  23  26
ATOM     26  N7   11 d          -2.516 205.657 116.412  0.00  0.00    -0.116 N 
ATOM     27  O1   11 d          -2.752 205.238 117.452  0.00  0.00    -0.532 OA
ATOM     28  O2   11 d          -1.641 205.070 115.718  0.00  0.00    -0.532 OA
ENDBRANCH  23  26
ENDBRANCH  19  20
ENDBRANCH  15  18
TORSDOF 3
ENDMDL
MODEL 6
REMARK VINA RESULT:      -8.6      7.611      9.961
REMARK  3 active torsions:
REMARK  status: ('A' for Active; 'I' for Inactive)
REMARK       I    between atoms: C9_12  and  N5_15 
REMARK    1  A    between atoms: N5_15  and  N6_16 
REMARK    2  A    between atoms: C10_17  and  C11_18 
REMARK    3  A    between atoms: C14_21  and  N7_22 
ROOT
ATOM      1  C1   11 d         -14.070 206.053 116.789  0.00  0.00     0.138 A 
ATOM      2  C2   11 d         -14.059 206.419 115.460  0.00  0.00     0.026 A 
ATOM      3  C3   11 d         -13.816 207.787 115.431  0.00  0.00     0.046 A 
ATOM      4  C4   11 d         -13.728 208.478 114.218  0.00  0.00     0.032 A 
ATOM      5  C5   11 d         -13.900 207.749 113.022  0.00  0.00     0.021 A 
ATOM      6  C6   11 d         -14.156 206.357 113.057  0.00  0.00     0.011 A 
ATOM      7 Br1   11 d         -14.395 205.387 111.410  0.00  0.00    -0.051 Br
ATOM      8  C7   11 d         -14.236 205.673 114.289  0.00  0.00     0.035 A 
ATOM      9  N1   11 d         -13.690 208.253 116.697  0.00  0.00    -0.338 N 
ATOM     10  C8   11 d         -13.845 207.199 117.528  0.00  0.00     0.179 A 
ATOM     11  N2   11 d         -13.799 207.152 118.883  0.00  0.00    -0.040 NA
ATOM     12  C9   11 d         -13.965 205.939 119.500  0.00  0.00     0.763 A 
ATOM     13  N3   11 d         -14.182 204.812 118.731  0.00  0.00     0.046 NA
ATOM     14  N4   11 d         -14.241 204.857 117.410  0.00  0.00    -0.129 NA
ATOM     15  N5   11 d         -13.894 205.877 120.879  0.00  0.00    -0.104 N 
ATOM     16  H4   11 d         -13.501 209.244 116.986  0.00  0.00     0.167 HD
ATOM     17  H5   11 d         -13.904 206.722 121.402  0.00  0.00     0.208 HD
ENDROOT
BRANCH  15  18
ATOM     18  N6   11 d         -13.792 204.731 121.529  0.00  0.00    -0.172 NA
ATOM     19  C10  11 d         -14.844 203.981 121.790  0.00  0.00     0.150 C 
BRANCH  19  20
ATOM     20  C11  11 d         -16.293 204.233 121.490  0.00  0.00    -0.017 A 
ATOM     21  C12  11 d         -17.122 205.142 122.181  0.00  0.00     0.015 A 
ATOM     22  C13  11 d         -18.471 205.296 121.828  0.00  0.00     0.037 A 
ATOM     23  C14  11 d         -19.046 204.532 120.785  0.00  0.00     0.102 A 
ATOM     24  C15  11 d         -18.218 203.610 120.110  0.00  0.00     0.037 A 
ATOM     25  C16  11 d         -16.867 203.464 120.458  0.00  0.00     0.015 A 
BRANCH  23  26
ATOM     26  N7   11 d         -20.391 204.672 120.434  0.00  0.00    -0.116 N 
ATOM     27  O1   11 d         -20.796 205.675 120.060  0.00  0.00    -0.532 OA
ATOM     28  O2   11 d         -21.178 203.686 120.468  0.00  0.00    -0.532 OA
ENDBRANCH  23  26
ENDBRANCH  19  20
ENDBRANCH  15  18
TORSDOF 3
ENDMDL
MODEL 7
REMARK VINA RESULT:      -8.6      5.686      9.897
REMARK  3 active torsions:
REMARK  status: ('A' for Active; 'I' for Inactive)
REMARK       I    between atoms: C9_12  and  N5_15 
REMARK    1  A    between atoms: N5_15  and  N6_16 
REMARK    2  A    between atoms: C10_17  and  C11_18 
REMARK    3  A    between atoms: C14_21  and  N7_22 
ROOT
ATOM      1  C1   11 d         -11.517 208.115 113.861  0.00  0.00     0.138 A 
ATOM      2  C2   11 d         -12.801 207.633 113.715  0.00  0.00     0.026 A 
ATOM      3  C3   11 d         -13.392 207.702 114.971  0.00  0.00     0.046 A 
ATOM      4  C4   11 d         -14.717 207.297 115.168  0.00  0.00     0.032 A 
ATOM      5  C5   11 d         -15.435 206.808 114.056  0.00  0.00     0.021 A 
ATOM      6  C6   11 d         -14.826 206.732 112.781  0.00  0.00     0.011 A 
ATOM      7 Br1   11 d         -15.828 206.053 111.281  0.00  0.00    -0.051 Br
ATOM      8  C7   11 d         -13.491 207.150 112.597  0.00  0.00     0.035 A 
ATOM      9  N1   11 d         -12.503 208.200 115.864  0.00  0.00    -0.338 N 
ATOM     10  C8   11 d         -11.359 208.452 115.192  0.00  0.00     0.179 A 
ATOM     11  N2   11 d         -10.186 208.961 115.643  0.00  0.00    -0.040 NA
ATOM     12  C9   11 d          -9.167 209.148 114.744  0.00  0.00     0.763 A 
ATOM     13  N3   11 d          -9.360 208.806 113.420  0.00  0.00     0.046 NA
ATOM     14  N4   11 d         -10.500 208.296 112.980  0.00  0.00    -0.129 NA
ATOM     15  N5   11 d          -7.976 209.690 115.190  0.00  0.00    -0.104 N 
ATOM     16  H4   11 d         -12.668 208.368 116.887  0.00  0.00     0.167 HD
ATOM     17  H5   11 d          -7.815 209.767 116.167  0.00  0.00     0.208 HD
ENDROOT
BRANCH  15  18
ATOM     18  N6   11 d          -7.047 210.130 114.359  0.00  0.00    -0.172 NA
ATOM     19  C10  11 d          -5.786 210.251 114.724  0.00  0.00     0.150 C 
BRANCH  19  20
ATOM     20  C11  11 d          -5.150 209.993 116.058  0.00  0.00    -0.017 A 
ATOM     21  C12  11 d          -5.513 210.622 117.269  0.00  0.00     0.015 A 
ATOM     22  C13  11 d          -4.846 210.317 118.465  0.00  0.00     0.037 A 
ATOM     23  C14  11 d          -3.780 209.389 118.491  0.00  0.00     0.102 A 
ATOM     24  C15  11 d          -3.407 208.778 117.275  0.00  0.00     0.037 A 
ATOM     25  C16  11 d          -4.081 209.076 116.082  0.00  0.00     0.015 A 
BRANCH  23  26
ATOM     26  N7   11 d          -3.104 209.088 119.676  0.00  0.00    -0.116 N 
ATOM     27  O1   11 d          -2.100 208.535 119.653  0.00  0.00    -0.532 OA
ATOM     28  O2   11 d          -3.551 209.463 120.795  0.00  0.00    -0.532 OA
ENDBRANCH  23  26
ENDBRANCH  19  20
ENDBRANCH  15  18
TORSDOF 3
ENDMDL
MODEL 8
REMARK VINA RESULT:      -8.3      2.286      3.573
REMARK  3 active torsions:
REMARK  status: ('A' for Active; 'I' for Inactive)
REMARK       I    between atoms: C9_12  and  N5_15 
REMARK    1  A    between atoms: N5_15  and  N6_16 
REMARK    2  A    between atoms: C10_17  and  C11_18 
REMARK    3  A    between atoms: C14_21  and  N7_22 
ROOT
ATOM      1  C1   11 d          -5.036 208.193 114.119  0.00  0.00     0.138 A 
ATOM      2  C2   11 d          -3.686 208.010 113.913  0.00  0.00     0.026 A 
ATOM      3  C3   11 d          -3.443 208.340 112.584  0.00  0.00     0.046 A 
ATOM      4  C4   11 d          -2.151 208.275 112.050  0.00  0.00     0.032 A 
ATOM      5  C5   11 d          -1.101 207.859 112.896  0.00  0.00     0.021 A 
ATOM      6  C6   11 d          -1.355 207.517 114.245  0.00  0.00     0.011 A 
ATOM      7 Br1   11 d           0.097 206.944 115.376  0.00  0.00    -0.051 Br
ATOM      8  C7   11 d          -2.662 207.593 114.771  0.00  0.00     0.035 A 
ATOM      9  N1   11 d          -4.603 208.704 111.987  0.00  0.00    -0.338 N 
ATOM     10  C8   11 d          -5.578 208.614 112.920  0.00  0.00     0.179 A 
ATOM     11  N2   11 d          -6.903 208.879 112.812  0.00  0.00    -0.040 NA
ATOM     12  C9   11 d          -7.690 208.734 113.925  0.00  0.00     0.763 A 
ATOM     13  N3   11 d          -7.117 208.316 115.110  0.00  0.00     0.046 NA
ATOM     14  N4   11 d          -5.826 208.044 115.214  0.00  0.00    -0.129 NA
ATOM     15  N5   11 d          -9.038 209.025 113.832  0.00  0.00    -0.104 N 
ATOM     16  H4   11 d          -4.728 209.006 110.990  0.00  0.00     0.167 HD
ATOM     17  H5   11 d          -9.443 209.160 112.934  0.00  0.00     0.208 HD
ENDROOT
BRANCH  15  18
ATOM     18  N6   11 d          -9.808 209.153 114.898  0.00  0.00    -0.172 NA
ATOM     19  C10  11 d         -11.024 208.647 114.946  0.00  0.00     0.150 C 
BRANCH  19  20
ATOM     20  C11  11 d         -11.792 207.910 113.888  0.00  0.00    -0.017 A 
ATOM     21  C12  11 d         -11.223 207.086 112.893  0.00  0.00     0.015 A 
ATOM     22  C13  11 d         -12.031 206.448 111.940  0.00  0.00     0.037 A 
ATOM     23  C14  11 d         -13.434 206.627 111.933  0.00  0.00     0.102 A 
ATOM     24  C15  11 d         -13.996 207.468 112.916  0.00  0.00     0.037 A 
ATOM     25  C16  11 d         -13.189 208.097 113.875  0.00  0.00     0.015 A 
BRANCH  23  26
ATOM     26  N7   11 d         -14.244 206.003 110.981  0.00  0.00    -0.116 N 
ATOM     27  O1   11 d         -14.347 204.863 110.957  0.00  0.00    -0.532 OA
ATOM     28  O2   11 d         -14.924 206.680 110.161  0.00  0.00    -0.532 OA
ENDBRANCH  23  26
ENDBRANCH  19  20
ENDBRANCH  15  18
TORSDOF 3
ENDMDL
MODEL 9
REMARK VINA RESULT:      -8.3      4.071      4.944
REMARK  3 active torsions:
REMARK  status: ('A' for Active; 'I' for Inactive)
REMARK       I    between atoms: C9_12  and  N5_15 
REMARK    1  A    between atoms: N5_15  and  N6_16 
REMARK    2  A    between atoms: C10_17  and  C11_18 
REMARK    3  A    between atoms: C14_21  and  N7_22 
ROOT
ATOM      1  C1   11 d          -8.235 208.577 113.632  0.00  0.00     0.138 A 
ATOM      2  C2   11 d          -6.871 208.762 113.570  0.00  0.00     0.026 A 
ATOM      3  C3   11 d          -6.512 209.432 114.734  0.00  0.00     0.046 A 
ATOM      4  C4   11 d          -5.177 209.765 114.992  0.00  0.00     0.032 A 
ATOM      5  C5   11 d          -4.205 209.409 114.033  0.00  0.00     0.021 A 
ATOM      6  C6   11 d          -4.577 208.734 112.846  0.00  0.00     0.011 A 
ATOM      7 Br1   11 d          -3.230 208.266 111.550  0.00  0.00    -0.051 Br
ATOM      8  C7   11 d          -5.926 208.400 112.603  0.00  0.00     0.035 A 
ATOM      9  N1   11 d          -7.616 209.660 115.485  0.00  0.00    -0.338 N 
ATOM     10  C8   11 d          -8.669 209.142 114.816  0.00  0.00     0.179 A 
ATOM     11  N2   11 d          -9.981 209.113 115.159  0.00  0.00    -0.040 NA
ATOM     12  C9   11 d         -10.864 208.496 114.310  0.00  0.00     0.763 A 
ATOM     13  N3   11 d         -10.396 207.936 113.137  0.00  0.00     0.046 NA
ATOM     14  N4   11 d          -9.119 207.975 112.794  0.00  0.00    -0.129 NA
ATOM     15  N5   11 d         -12.199 208.440 114.662  0.00  0.00    -0.104 N 
ATOM     16  H4   11 d          -7.653 210.144 116.416  0.00  0.00     0.167 HD
ATOM     17  H5   11 d         -12.522 208.992 115.422  0.00  0.00     0.208 HD
ENDROOT
BRANCH  15  18
ATOM     18  N6   11 d         -13.061 207.658 114.036  0.00  0.00    -0.172 NA
ATOM     19  C10  11 d         -13.829 206.806 114.685  0.00  0.00     0.150 C 
BRANCH  19  20
ATOM     20  C11  11 d         -13.883 206.499 116.153  0.00  0.00    -0.017 A 
ATOM     21  C12  11 d         -13.742 207.446 117.190  0.00  0.00     0.015 A 
ATOM     22  C13  11 d         -13.797 207.053 118.535  0.00  0.00     0.037 A 
ATOM     23  C14  11 d         -13.976 205.696 118.894  0.00  0.00     0.102 A 
ATOM     24  C15  11 d         -14.096 204.750 117.855  0.00  0.00     0.037 A 
ATOM     25  C16  11 d         -14.051 205.145 116.510  0.00  0.00     0.015 A 
BRANCH  23  26
ATOM     26  N7   11 d         -14.022 205.295 120.232  0.00  0.00    -0.116 N 
ATOM     27  O1   11 d         -14.750 204.480 120.573  0.00  0.00    -0.532 OA
ATOM     28  O2   11 d         -13.227 205.778 121.084  0.00  0.00    -0.532 OA
ENDBRANCH  23  26
ENDBRANCH  19  20
ENDBRANCH  15  18
TORSDOF 3
ENDMDL
MODEL 10
REMARK VINA RESULT:      -7.8      8.690     10.991
REMARK  3 active torsions:
REMARK  status: ('A' for Active; 'I' for Inactive)
REMARK       I    between atoms: C9_12  and  N5_15 
REMARK    1  A    between atoms: N5_15  and  N6_16 
REMARK    2  A    between atoms: C10_17  and  C11_18 
REMARK    3  A    between atoms: C14_21  and  N7_22 
ROOT
ATOM      1  C1   11 d         -14.254 205.879 116.587  0.00  0.00     0.138 A 
ATOM      2  C2   11 d         -14.276 206.288 115.271  0.00  0.00     0.026 A 
ATOM      3  C3   11 d         -14.014 207.654 115.279  0.00  0.00     0.046 A 
ATOM      4  C4   11 d         -13.951 208.382 114.086  0.00  0.00     0.032 A 
ATOM      5  C5   11 d         -14.168 207.694 112.874  0.00  0.00     0.021 A 
ATOM      6  C6   11 d         -14.442 206.306 112.871  0.00  0.00     0.011 A 
ATOM      7 Br1   11 d         -14.742 205.393 111.201  0.00  0.00    -0.051 Br
ATOM      8  C7   11 d         -14.497 205.584 114.082  0.00  0.00     0.035 A 
ATOM      9  N1   11 d         -13.845 208.076 116.555  0.00  0.00    -0.338 N 
ATOM     10  C8   11 d         -13.992 206.997 117.356  0.00  0.00     0.179 A 
ATOM     11  N2   11 d         -13.908 206.906 118.706  0.00  0.00    -0.040 NA
ATOM     12  C9   11 d         -14.073 205.676 119.289  0.00  0.00     0.763 A 
ATOM     13  N3   11 d         -14.327 204.577 118.491  0.00  0.00     0.046 NA
ATOM     14  N4   11 d         -14.423 204.666 117.175  0.00  0.00    -0.129 NA
ATOM     15  N5   11 d         -13.963 205.568 120.663  0.00  0.00    -0.104 N 
ATOM     16  H4   11 d         -13.634 209.055 116.870  0.00  0.00     0.167 HD
ATOM     17  H5   11 d         -13.946 206.396 121.213  0.00  0.00     0.208 HD
ENDROOT
BRANCH  15  18
ATOM     18  N6   11 d         -13.859 204.401 121.273  0.00  0.00    -0.172 NA
ATOM     19  C10  11 d         -14.599 204.092 122.318  0.00  0.00     0.150 C 
BRANCH  19  20
ATOM     20  C11  11 d         -15.617 204.921 123.045  0.00  0.00    -0.017 A 
ATOM     21  C12  11 d         -15.462 205.444 124.347  0.00  0.00     0.015 A 
ATOM     22  C13  11 d         -16.482 206.201 124.944  0.00  0.00     0.037 A 
ATOM     23  C14  11 d         -17.701 206.446 124.269  0.00  0.00     0.102 A 
ATOM     24  C15  11 d         -17.859 205.905 122.976  0.00  0.00     0.037 A 
ATOM     25  C16  11 d         -16.835 205.157 122.377  0.00  0.00     0.015 A 
BRANCH  23  26
ATOM     26  N7   11 d         -18.725 207.190 124.860  0.00  0.00    -0.116 N 
ATOM     27  O1   11 d         -18.593 208.310 125.060  0.00  0.00    -0.532 OA
ATOM     28  O2   11 d         -19.837 206.662 125.138  0.00  0.00    -0.532 OA
ENDBRANCH  23  26
ENDBRANCH  19  20
ENDBRANCH  15  18
TORSDOF 3
ENDMDL
MODEL 11
REMARK VINA RESULT:      -7.8      2.753      4.134
REMARK  3 active torsions:
REMARK  status: ('A' for Active; 'I' for Inactive)
REMARK       I    between atoms: C9_12  and  N5_15 
REMARK    1  A    between atoms: N5_15  and  N6_16 
REMARK    2  A    between atoms: C10_17  and  C11_18 
REMARK    3  A    between atoms: C14_21  and  N7_22 
ROOT
ATOM      1  C1   11 d          -5.728 209.859 117.365  0.00  0.00     0.138 A 
ATOM      2  C2   11 d          -5.159 210.023 118.610  0.00  0.00     0.026 A 
ATOM      3  C3   11 d          -5.416 208.853 119.317  0.00  0.00     0.046 A 
ATOM      4  C4   11 d          -4.956 208.687 120.628  0.00  0.00     0.032 A 
ATOM      5  C5   11 d          -4.229 209.744 121.217  0.00  0.00     0.021 A 
ATOM      6  C6   11 d          -3.978 210.936 120.496  0.00  0.00     0.011 A 
ATOM      7 Br1   11 d          -2.989 212.366 121.328  0.00  0.00    -0.051 Br
ATOM      8  C7   11 d          -4.444 211.085 119.173  0.00  0.00     0.035 A 
ATOM      9  N1   11 d          -6.126 208.000 118.540  0.00  0.00    -0.338 N 
ATOM     10  C8   11 d          -6.319 208.610 117.349  0.00  0.00     0.179 A 
ATOM     11  N2   11 d          -6.964 208.162 116.244  0.00  0.00    -0.040 NA
ATOM     12  C9   11 d          -7.002 208.971 115.137  0.00  0.00     0.763 A 
ATOM     13  N3   11 d          -6.396 210.211 115.185  0.00  0.00     0.046 NA
ATOM     14  N4   11 d          -5.777 210.656 116.267  0.00  0.00    -0.129 NA
ATOM     15  N5   11 d          -7.635 208.513 113.998  0.00  0.00    -0.104 N 
ATOM     16  H4   11 d          -6.461 207.041 118.804  0.00  0.00     0.167 HD
ATOM     17  H5   11 d          -8.198 207.695 114.053  0.00  0.00     0.208 HD
ENDROOT
BRANCH  15  18
ATOM     18  N6   11 d          -7.502 209.112 112.828  0.00  0.00    -0.172 NA
ATOM     19  C10  11 d          -8.448 209.071 111.911  0.00  0.00     0.150 C 
BRANCH  19  20
ATOM     20  C11  11 d          -9.771 208.362 111.937  0.00  0.00    -0.017 A 
ATOM     21  C12  11 d         -10.511 208.062 113.101  0.00  0.00     0.015 A 
ATOM     22  C13  11 d         -11.736 207.383 113.017  0.00  0.00     0.037 A 
ATOM     23  C14  11 d         -12.256 206.962 111.771  0.00  0.00     0.102 A 
ATOM     24  C15  11 d         -11.502 207.247 110.613  0.00  0.00     0.037 A 
ATOM     25  C16  11 d         -10.283 207.934 110.696  0.00  0.00     0.015 A 
BRANCH  23  26
ATOM     26  N7   11 d         -13.470 206.277 111.681  0.00  0.00    -0.116 N 
ATOM     27  O1   11 d         -13.773 205.515 112.481  0.00  0.00    -0.532 OA
ATOM     28  O2   11 d         -14.287 206.519 110.750  0.00  0.00    -0.532 OA
ENDBRANCH  23  26
ENDBRANCH  19  20
ENDBRANCH  15  18
TORSDOF 3
ENDMDL
MODEL 12
REMARK VINA RESULT:      -7.8      2.714      3.988
REMARK  3 active torsions:
REMARK  status: ('A' for Active; 'I' for Inactive)
REMARK       I    between atoms: C9_12  and  N5_15 
REMARK    1  A    between atoms: N5_15  and  N6_16 
REMARK    2  A    between atoms: C10_17  and  C11_18 
REMARK    3  A    between atoms: C14_21  and  N7_22 
ROOT
ATOM      1  C1   11 d          -5.892 209.684 116.046  0.00  0.00     0.138 A 
ATOM      2  C2   11 d          -5.138 209.899 117.180  0.00  0.00     0.026 A 
ATOM      3  C3   11 d          -4.216 208.860 117.242  0.00  0.00     0.046 A 
ATOM      4  C4   11 d          -3.279 208.788 118.279  0.00  0.00     0.032 A 
ATOM      5  C5   11 d          -3.300 209.797 119.266  0.00  0.00     0.021 A 
ATOM      6  C6   11 d          -4.245 210.849 119.202  0.00  0.00     0.011 A 
ATOM      7 Br1   11 d          -4.256 212.210 120.566  0.00  0.00    -0.051 Br
ATOM      8  C7   11 d          -5.180 210.910 118.146  0.00  0.00     0.035 A 
ATOM      9  N1   11 d          -4.400 208.026 116.190  0.00  0.00    -0.338 N 
ATOM     10  C8   11 d          -5.422 208.524 115.459  0.00  0.00     0.179 A 
ATOM     11  N2   11 d          -5.974 208.054 114.314  0.00  0.00    -0.040 NA
ATOM     12  C9   11 d          -6.999 208.764 113.743  0.00  0.00     0.763 A 
ATOM     13  N3   11 d          -7.441 209.922 114.353  0.00  0.00     0.046 NA
ATOM     14  N4   11 d          -6.913 210.376 115.478  0.00  0.00    -0.129 NA
ATOM     15  N5   11 d          -7.552 208.306 112.562  0.00  0.00    -0.104 N 
ATOM     16  H4   11 d          -3.851 207.158 115.974  0.00  0.00     0.167 HD
ATOM     17  H5   11 d          -7.325 207.392 112.245  0.00  0.00     0.208 HD
ENDROOT
BRANCH  15  18
ATOM     18  N6   11 d          -8.357 209.051 111.825  0.00  0.00    -0.172 NA
ATOM     19  C10  11 d          -9.669 208.972 111.929  0.00  0.00     0.150 C 
BRANCH  19  20
ATOM     20  C11  11 d         -10.505 208.071 112.790  0.00  0.00    -0.017 A 
ATOM     21  C12  11 d         -11.271 206.980 112.324  0.00  0.00     0.015 A 
ATOM     22  C13  11 d         -12.030 206.203 113.213  0.00  0.00     0.037 A 
ATOM     23  C14  11 d         -12.068 206.501 114.595  0.00  0.00     0.102 A 
ATOM     24  C15  11 d         -11.317 207.604 115.053  0.00  0.00     0.037 A 
ATOM     25  C16  11 d         -10.551 208.373 114.166  0.00  0.00     0.015 A 
BRANCH  23  26
ATOM     26  N7   11 d         -12.829 205.739 115.485  0.00  0.00    -0.116 N 
ATOM     27  O1   11 d         -13.937 205.533 115.279  0.00  0.00    -0.532 OA
ATOM     28  O2   11 d         -12.305 205.213 116.506  0.00  0.00    -0.532 OA
ENDBRANCH  23  26
ENDBRANCH  19  20
ENDBRANCH  15  18
TORSDOF 3
ENDMDL
MODEL 13
REMARK VINA RESULT:      -7.6      3.673      4.935
REMARK  3 active torsions:
REMARK  status: ('A' for Active; 'I' for Inactive)
REMARK       I    between atoms: C9_12  and  N5_15 
REMARK    1  A    between atoms: N5_15  and  N6_16 
REMARK    2  A    between atoms: C10_17  and  C11_18 
REMARK    3  A    between atoms: C14_21  and  N7_22 
ROOT
ATOM      1  C1   11 d          -8.479 208.435 118.908  0.00  0.00     0.138 A 
ATOM      2  C2   11 d          -7.212 208.776 119.330  0.00  0.00     0.026 A 
ATOM      3  C3   11 d          -6.436 208.903 118.183  0.00  0.00     0.046 A 
ATOM      4  C4   11 d          -5.085 209.260 118.262  0.00  0.00     0.032 A 
ATOM      5  C5   11 d          -4.528 209.480 119.540  0.00  0.00     0.021 A 
ATOM      6  C6   11 d          -5.320 209.343 120.705  0.00  0.00     0.011 A 
ATOM      7 Br1   11 d          -4.532 209.643 122.437  0.00  0.00    -0.051 Br
ATOM      8  C7   11 d          -6.682 208.988 120.608  0.00  0.00     0.035 A 
ATOM      9  N1   11 d          -7.194 208.640 117.091  0.00  0.00    -0.338 N 
ATOM     10  C8   11 d          -8.440 208.354 117.529  0.00  0.00     0.179 A 
ATOM     11  N2   11 d          -9.551 208.034 116.822  0.00  0.00    -0.040 NA
ATOM     12  C9   11 d         -10.719 207.809 117.507  0.00  0.00     0.763 A 
ATOM     13  N3   11 d         -10.724 207.904 118.885  0.00  0.00     0.046 NA
ATOM     14  N4   11 d          -9.637 208.204 119.578  0.00  0.00    -0.129 NA
ATOM     15  N5   11 d         -11.863 207.507 116.793  0.00  0.00    -0.104 N 
ATOM     16  H4   11 d          -6.880 208.660 116.090  0.00  0.00     0.167 HD
ATOM     17  H5   11 d         -11.786 207.284 115.828  0.00  0.00     0.208 HD
ENDROOT
BRANCH  15  18
ATOM     18  N6   11 d         -13.063 207.524 117.345  0.00  0.00    -0.172 NA
ATOM     19  C10  11 d         -14.157 207.308 116.642  0.00  0.00     0.150 C 
BRANCH  19  20
ATOM     20  C11  11 d         -14.311 207.060 115.170  0.00  0.00    -0.017 A 
ATOM     21  C12  11 d         -14.053 208.005 114.154  0.00  0.00     0.015 A 
ATOM     22  C13  11 d         -14.240 207.676 112.803  0.00  0.00     0.037 A 
ATOM     23  C14  11 d         -14.711 206.399 112.419  0.00  0.00     0.102 A 
ATOM     24  C15  11 d         -14.988 205.464 113.440  0.00  0.00     0.037 A 
ATOM     25  C16  11 d         -14.791 205.791 114.789  0.00  0.00     0.015 A 
BRANCH  23  26
ATOM     26  N7   11 d         -14.909 206.067 111.077  0.00  0.00    -0.116 N 
ATOM     27  O1   11 d         -14.469 205.103 110.641  0.00  0.00    -0.532 OA
ATOM     28  O2   11 d         -15.622 206.788 110.326  0.00  0.00    -0.532 OA
ENDBRANCH  23  26
ENDBRANCH  19  20
ENDBRANCH  15  18
TORSDOF 3
ENDMDL
MODEL 14
REMARK VINA RESULT:      -7.6      3.578      4.419
REMARK  3 active torsions:
REMARK  status: ('A' for Active; 'I' for Inactive)
REMARK       I    between atoms: C9_12  and  N5_15 
REMARK    1  A    between atoms: N5_15  and  N6_16 
REMARK    2  A    between atoms: C10_17  and  C11_18 
REMARK    3  A    between atoms: C14_21  and  N7_22 
ROOT
ATOM      1  C1   11 d          -5.738 208.356 112.483  0.00  0.00     0.138 A 
ATOM      2  C2   11 d          -4.365 208.341 112.367  0.00  0.00     0.026 A 
ATOM      3  C3   11 d          -3.863 208.234 113.660  0.00  0.00     0.046 A 
ATOM      4  C4   11 d          -2.485 208.178 113.895  0.00  0.00     0.032 A 
ATOM      5  C5   11 d          -1.616 208.240 112.785  0.00  0.00     0.021 A 
ATOM      6  C6   11 d          -2.132 208.357 111.472  0.00  0.00     0.011 A 
ATOM      7 Br1   11 d          -0.923 208.447 109.974  0.00  0.00    -0.051 Br
ATOM      8  C7   11 d          -3.525 208.406 111.250  0.00  0.00     0.035 A 
ATOM      9  N1   11 d          -4.889 208.194 114.543  0.00  0.00    -0.338 N 
ATOM     10  C8   11 d          -6.035 208.269 113.830  0.00  0.00     0.179 A 
ATOM     11  N2   11 d          -7.321 208.260 114.258  0.00  0.00    -0.040 NA
ATOM     12  C9   11 d          -8.321 208.323 113.321  0.00  0.00     0.763 A 
ATOM     13  N3   11 d          -7.990 208.403 111.983  0.00  0.00     0.046 NA
ATOM     14  N4   11 d          -6.736 208.425 111.563  0.00  0.00    -0.129 NA
ATOM     15  N5   11 d          -9.635 208.289 113.746  0.00  0.00    -0.104 N 
ATOM     16  H4   11 d          -4.816 208.114 115.587  0.00  0.00     0.167 HD
ATOM     17  H5   11 d          -9.834 208.399 114.714  0.00  0.00     0.208 HD
ENDROOT
BRANCH  15  18
ATOM     18  N6   11 d         -10.641 208.093 112.912  0.00  0.00    -0.172 NA
ATOM     19  C10  11 d         -11.790 207.585 113.312  0.00  0.00     0.150 C 
BRANCH  19  20
ATOM     20  C11  11 d         -12.196 207.098 114.672  0.00  0.00    -0.017 A 
ATOM     21  C12  11 d         -11.880 205.833 115.212  0.00  0.00     0.015 A 
ATOM     22  C13  11 d         -12.318 205.469 116.495  0.00  0.00     0.037 A 
ATOM     23  C14  11 d         -13.104 206.348 117.276  0.00  0.00     0.102 A 
ATOM     24  C15  11 d         -13.435 207.604 116.723  0.00  0.00     0.037 A 
ATOM     25  C16  11 d         -12.988 207.970 115.446  0.00  0.00     0.015 A 
BRANCH  23  26
ATOM     26  N7   11 d         -13.553 205.990 118.549  0.00  0.00    -0.116 N 
ATOM     27  O1   11 d         -13.317 206.645 119.458  0.00  0.00    -0.532 OA
ATOM     28  O2   11 d         -14.274 204.969 118.722  0.00  0.00    -0.532 OA
ENDBRANCH  23  26
ENDBRANCH  19  20
ENDBRANCH  15  18
TORSDOF 3
ENDMDL
MODEL 15
REMARK VINA RESULT:      -7.6      6.006     10.331
REMARK  3 active torsions:
REMARK  status: ('A' for Active; 'I' for Inactive)
REMARK       I    between atoms: C9_12  and  N5_15 
REMARK    1  A    between atoms: N5_15  and  N6_16 
REMARK    2  A    between atoms: C10_17  and  C11_18 
REMARK    3  A    between atoms: C14_21  and  N7_22 
ROOT
ATOM      1  C1   11 d         -10.895 208.207 114.830  0.00  0.00     0.138 A 
ATOM      2  C2   11 d         -12.181 207.927 114.423  0.00  0.00     0.026 A 
ATOM      3  C3   11 d         -12.936 207.777 115.582  0.00  0.00     0.046 A 
ATOM      4  C4   11 d         -14.306 207.498 115.519  0.00  0.00     0.032 A 
ATOM      5  C5   11 d         -14.900 207.364 114.246  0.00  0.00     0.021 A 
ATOM      6  C6   11 d         -14.126 207.510 113.070  0.00  0.00     0.011 A 
ATOM      7 Br1   11 d         -14.962 207.317 111.344  0.00  0.00    -0.051 Br
ATOM      8  C7   11 d         -12.747 207.798 113.150  0.00  0.00     0.035 A 
ATOM      9  N1   11 d         -12.142 207.949 116.666  0.00  0.00    -0.338 N 
ATOM     10  C8   11 d         -10.896 208.210 116.212  0.00  0.00     0.179 A 
ATOM     11  N2   11 d          -9.759 208.459 116.907  0.00  0.00    -0.040 NA
ATOM     12  C9   11 d          -8.611 208.724 116.205  0.00  0.00     0.763 A 
ATOM     13  N3   11 d          -8.645 208.719 114.824  0.00  0.00     0.046 NA
ATOM     14  N4   11 d          -9.751 208.463 114.145  0.00  0.00    -0.129 NA
ATOM     15  N5   11 d          -7.452 209.005 116.904  0.00  0.00    -0.104 N 
ATOM     16  H4   11 d         -12.435 207.896 117.673  0.00  0.00     0.167 HD
ATOM     17  H5   11 d          -7.425 208.837 117.883  0.00  0.00     0.208 HD
ENDROOT
BRANCH  15  18
ATOM     18  N6   11 d          -6.380 209.510 116.319  0.00  0.00    -0.172 NA
ATOM     19  C10  11 d          -5.444 210.138 117.002  0.00  0.00     0.150 C 
BRANCH  19  20
ATOM     20  C11  11 d          -5.382 210.454 118.468  0.00  0.00    -0.017 A 
ATOM     21  C12  11 d          -5.927 211.605 119.077  0.00  0.00     0.015 A 
ATOM     22  C13  11 d          -5.805 211.812 120.459  0.00  0.00     0.037 A 
ATOM     23  C14  11 d          -5.117 210.888 121.280  0.00  0.00     0.102 A 
ATOM     24  C15  11 d          -4.556 209.750 120.663  0.00  0.00     0.037 A 
ATOM     25  C16  11 d          -4.687 209.538 119.283  0.00  0.00     0.015 A 
BRANCH  23  26
ATOM     26  N7   11 d          -4.982 211.093 122.655  0.00  0.00    -0.116 N 
ATOM     27  O1   11 d          -3.963 211.347 123.111  0.00  0.00    -0.532 OA
ATOM     28  O2   11 d          -5.985 211.058 123.420  0.00  0.00    -0.532 OA
ENDBRANCH  23  26
ENDBRANCH  19  20
ENDBRANCH  15  18
TORSDOF 3
ENDMDL
MODEL 16
REMARK VINA RESULT:      -7.5      6.649      7.989
REMARK  3 active torsions:
REMARK  status: ('A' for Active; 'I' for Inactive)
REMARK       I    between atoms: C9_12  and  N5_15 
REMARK    1  A    between atoms: N5_15  and  N6_16 
REMARK    2  A    between atoms: C10_17  and  C11_18 
REMARK    3  A    between atoms: C14_21  and  N7_22 
ROOT
ATOM      1  C1   11 d         -10.238 207.451 117.606  0.00  0.00     0.138 A 
ATOM      2  C2   11 d          -9.441 208.112 116.696  0.00  0.00     0.026 A 
ATOM      3  C3   11 d         -10.249 208.397 115.600  0.00  0.00     0.046 A 
ATOM      4  C4   11 d          -9.743 209.085 114.492  0.00  0.00     0.032 A 
ATOM      5  C5   11 d          -8.387 209.476 114.512  0.00  0.00     0.021 A 
ATOM      6  C6   11 d          -7.567 209.176 115.626  0.00  0.00     0.011 A 
ATOM      7 Br1   11 d          -5.717 209.715 115.624  0.00  0.00    -0.051 Br
ATOM      8  C7   11 d          -8.093 208.487 116.739  0.00  0.00     0.035 A 
ATOM      9  N1   11 d         -11.497 207.921 115.821  0.00  0.00    -0.338 N 
ATOM     10  C8   11 d         -11.495 207.342 117.042  0.00  0.00     0.179 A 
ATOM     11  N2   11 d         -12.504 206.732 117.711  0.00  0.00    -0.040 NA
ATOM     12  C9   11 d         -12.252 206.240 118.966  0.00  0.00     0.763 A 
ATOM     13  N3   11 d         -10.985 206.370 119.502  0.00  0.00     0.046 NA
ATOM     14  N4   11 d          -9.996 206.953 118.846  0.00  0.00    -0.129 NA
ATOM     15  N5   11 d         -13.281 205.639 119.666  0.00  0.00    -0.104 N 
ATOM     16  H4   11 d         -12.320 207.991 115.172  0.00  0.00     0.167 HD
ATOM     17  H5   11 d         -14.124 205.415 119.189  0.00  0.00     0.208 HD
ENDROOT
BRANCH  15  18
ATOM     18  N6   11 d         -13.192 205.368 120.956  0.00  0.00    -0.172 NA
ATOM     19  C10  11 d         -14.204 204.864 121.634  0.00  0.00     0.150 C 
BRANCH  19  20
ATOM     20  C11  11 d         -15.596 204.544 121.173  0.00  0.00    -0.017 A 
ATOM     21  C12  11 d         -15.975 203.375 120.477  0.00  0.00     0.015 A 
ATOM     22  C13  11 d         -17.306 203.176 120.080  0.00  0.00     0.037 A 
ATOM     23  C14  11 d         -18.301 204.145 120.344  0.00  0.00     0.102 A 
ATOM     24  C15  11 d         -17.913 205.321 121.021  0.00  0.00     0.037 A 
ATOM     25  C16  11 d         -16.585 205.514 121.427  0.00  0.00     0.015 A 
BRANCH  23  26
ATOM     26  N7   11 d         -19.626 203.959 119.942  0.00  0.00    -0.116 N 
ATOM     27  O1   11 d         -20.485 204.470 120.502  0.00  0.00    -0.532 OA
ATOM     28  O2   11 d         -19.907 203.270 118.923  0.00  0.00    -0.532 OA
ENDBRANCH  23  26
ENDBRANCH  19  20
ENDBRANCH  15  18
TORSDOF 3
ENDMDL
MODEL 17
REMARK VINA RESULT:      -7.3      1.562      2.219
REMARK  3 active torsions:
REMARK  status: ('A' for Active; 'I' for Inactive)
REMARK       I    between atoms: C9_12  and  N5_15 
REMARK    1  A    between atoms: N5_15  and  N6_16 
REMARK    2  A    between atoms: C10_17  and  C11_18 
REMARK    3  A    between atoms: C14_21  and  N7_22 
ROOT
ATOM      1  C1   11 d          -5.928 208.984 115.423  0.00  0.00     0.138 A 
ATOM      2  C2   11 d          -5.046 208.882 116.478  0.00  0.00     0.026 A 
ATOM      3  C3   11 d          -5.821 208.757 117.626  0.00  0.00     0.046 A 
ATOM      4  C4   11 d          -5.226 208.617 118.885  0.00  0.00     0.032 A 
ATOM      5  C5   11 d          -3.817 208.614 118.959  0.00  0.00     0.021 A 
ATOM      6  C6   11 d          -3.033 208.750 117.788  0.00  0.00     0.011 A 
ATOM      7 Br1   11 d          -1.111 208.750 117.919  0.00  0.00    -0.051 Br
ATOM      8  C7   11 d          -3.648 208.884 116.525  0.00  0.00     0.035 A 
ATOM      9  N1   11 d          -7.134 208.789 117.294  0.00  0.00    -0.338 N 
ATOM     10  C8   11 d          -7.203 208.929 115.952  0.00  0.00     0.179 A 
ATOM     11  N2   11 d          -8.292 209.005 115.147  0.00  0.00    -0.040 NA
ATOM     12  C9   11 d          -8.096 209.121 113.794  0.00  0.00     0.763 A 
ATOM     13  N3   11 d          -6.808 209.167 113.298  0.00  0.00     0.046 NA
ATOM     14  N4   11 d          -5.744 209.107 114.083  0.00  0.00    -0.129 NA
ATOM     15  N5   11 d          -9.199 209.173 112.963  0.00  0.00    -0.104 N 
ATOM     16  H4   11 d          -7.949 208.715 117.950  0.00  0.00     0.167 HD
ATOM     17  H5   11 d         -10.099 209.304 113.362  0.00  0.00     0.208 HD
ENDROOT
BRANCH  15  18
ATOM     18  N6   11 d          -9.102 209.032 111.652  0.00  0.00    -0.172 NA
ATOM     19  C10  11 d          -9.975 208.329 110.960  0.00  0.00     0.150 C 
BRANCH  19  20
ATOM     20  C11  11 d         -11.161 207.543 111.438  0.00  0.00    -0.017 A 
ATOM     21  C12  11 d         -11.311 207.003 112.734  0.00  0.00     0.015 A 
ATOM     22  C13  11 d         -12.457 206.271 113.079  0.00  0.00     0.037 A 
ATOM     23  C14  11 d         -13.485 206.035 112.137  0.00  0.00     0.102 A 
ATOM     24  C15  11 d         -13.321 206.559 110.837  0.00  0.00     0.037 A 
ATOM     25  C16  11 d         -12.180 207.299 110.496  0.00  0.00     0.015 A 
BRANCH  23  26
ATOM     26  N7   11 d         -14.625 205.298 112.470  0.00  0.00    -0.116 N 
ATOM     27  O1   11 d         -14.885 204.337 111.905  0.00  0.00    -0.532 OA
ATOM     28  O2   11 d         -15.364 205.642 113.433  0.00  0.00    -0.532 OA
ENDBRANCH  23  26
ENDBRANCH  19  20
ENDBRANCH  15  18
TORSDOF 3
ENDMDL
MODEL 18
REMARK VINA RESULT:      -7.2      2.561      3.576
REMARK  3 active torsions:
REMARK  status: ('A' for Active; 'I' for Inactive)
REMARK       I    between atoms: C9_12  and  N5_15 
REMARK    1  A    between atoms: N5_15  and  N6_16 
REMARK    2  A    between atoms: C10_17  and  C11_18 
REMARK    3  A    between atoms: C14_21  and  N7_22 
ROOT
ATOM      1  C1   11 d          -5.034 207.318 115.747  0.00  0.00     0.138 A 
ATOM      2  C2   11 d          -4.233 206.636 116.638  0.00  0.00     0.026 A 
ATOM      3  C3   11 d          -4.859 206.726 117.877  0.00  0.00     0.046 A 
ATOM      4  C4   11 d          -4.305 206.119 119.010  0.00  0.00     0.032 A 
ATOM      5  C5   11 d          -3.089 205.418 118.863  0.00  0.00     0.021 A 
ATOM      6  C6   11 d          -2.453 205.335 117.601  0.00  0.00     0.011 A 
ATOM      7 Br1   11 d          -0.789 204.378 117.430  0.00  0.00    -0.051 Br
ATOM      8  C7   11 d          -3.027 205.948 116.467  0.00  0.00     0.035 A 
ATOM      9  N1   11 d          -6.000 207.446 117.758  0.00  0.00    -0.338 N 
ATOM     10  C8   11 d          -6.110 207.810 116.461  0.00  0.00     0.179 A 
ATOM     11  N2   11 d          -7.079 208.531 115.846  0.00  0.00    -0.040 NA
ATOM     12  C9   11 d          -6.974 208.747 114.495  0.00  0.00     0.763 A 
ATOM     13  N3   11 d          -5.889 208.236 113.811  0.00  0.00     0.046 NA
ATOM     14  N4   11 d          -4.935 207.543 114.412  0.00  0.00    -0.129 NA
ATOM     15  N5   11 d          -7.970 209.459 113.855  0.00  0.00    -0.104 N 
ATOM     16  H4   11 d          -6.679 207.677 118.524  0.00  0.00     0.167 HD
ATOM     17  H5   11 d          -8.641 209.949 114.400  0.00  0.00     0.208 HD
ENDROOT
BRANCH  15  18
ATOM     18  N6   11 d          -8.075 209.496 112.538  0.00  0.00    -0.172 NA
ATOM     19  C10  11 d          -9.095 208.954 111.904  0.00  0.00     0.150 C 
BRANCH  19  20
ATOM     20  C11  11 d         -10.261 208.186 112.456  0.00  0.00    -0.017 A 
ATOM     21  C12  11 d         -10.571 208.049 113.826  0.00  0.00     0.015 A 
ATOM     22  C13  11 d         -11.682 207.298 114.240  0.00  0.00     0.037 A 
ATOM     23  C14  11 d         -12.511 206.641 113.301  0.00  0.00     0.102 A 
ATOM     24  C15  11 d         -12.186 206.764 111.934  0.00  0.00     0.037 A 
ATOM     25  C16  11 d         -11.081 207.523 111.521  0.00  0.00     0.015 A 
BRANCH  23  26
ATOM     26  N7   11 d         -13.613 205.883 113.705  0.00  0.00    -0.116 N 
ATOM     27  O1   11 d         -14.226 205.289 112.942  0.00  0.00    -0.532 OA
ATOM     28  O2   11 d         -13.927 205.789 114.924  0.00  0.00    -0.532 OA
ENDBRANCH  23  26
ENDBRANCH  19  20
ENDBRANCH  15  18
TORSDOF 3
ENDMDL
MODEL 19
REMARK VINA RESULT:      -7.1      4.627      6.695
REMARK  3 active torsions:
REMARK  status: ('A' for Active; 'I' for Inactive)
REMARK       I    between atoms: C9_12  and  N5_15 
REMARK    1  A    between atoms: N5_15  and  N6_16 
REMARK    2  A    between atoms: C10_17  and  C11_18 
REMARK    3  A    between atoms: C14_21  and  N7_22 
ROOT
ATOM      1  C1   11 d          -6.737 206.796 119.168  0.00  0.00     0.138 A 
ATOM      2  C2   11 d          -6.965 206.021 120.285  0.00  0.00     0.026 A 
ATOM      3  C3   11 d          -6.358 204.794 120.042  0.00  0.00     0.046 A 
ATOM      4  C4   11 d          -6.391 203.772 120.997  0.00  0.00     0.032 A 
ATOM      5  C5   11 d          -7.066 204.017 122.212  0.00  0.00     0.021 A 
ATOM      6  C6   11 d          -7.690 205.265 122.451  0.00  0.00     0.011 A 
ATOM      7 Br1   11 d          -8.610 205.572 124.116  0.00  0.00    -0.051 Br
ATOM      8  C7   11 d          -7.642 206.289 121.480  0.00  0.00     0.035 A 
ATOM      9  N1   11 d          -5.783 204.807 118.816  0.00  0.00    -0.338 N 
ATOM     10  C8   11 d          -6.013 206.025 118.278  0.00  0.00     0.179 A 
ATOM     11  N2   11 d          -5.635 206.524 117.076  0.00  0.00    -0.040 NA
ATOM     12  C9   11 d          -5.975 207.818 116.770  0.00  0.00     0.763 A 
ATOM     13  N3   11 d          -6.694 208.563 117.684  0.00  0.00     0.046 NA
ATOM     14  N4   11 d          -7.075 208.073 118.853  0.00  0.00    -0.129 NA
ATOM     15  N5   11 d          -5.573 208.344 115.557  0.00  0.00    -0.104 N 
ATOM     16  H4   11 d          -5.252 204.022 118.363  0.00  0.00     0.167 HD
ATOM     17  H5   11 d          -5.206 207.734 114.863  0.00  0.00     0.208 HD
ENDROOT
BRANCH  15  18
ATOM     18  N6   11 d          -5.637 209.637 115.293  0.00  0.00    -0.172 NA
ATOM     19  C10  11 d          -6.628 210.158 114.598  0.00  0.00     0.150 C 
BRANCH  19  20
ATOM     20  C11  11 d          -7.798 209.478 113.948  0.00  0.00    -0.017 A 
ATOM     21  C12  11 d          -7.889 209.145 112.579  0.00  0.00     0.015 A 
ATOM     22  C13  11 d          -9.035 208.518 112.066  0.00  0.00     0.037 A 
ATOM     23  C14  11 d         -10.139 208.220 112.898  0.00  0.00     0.102 A 
ATOM     24  C15  11 d         -10.052 208.574 114.261  0.00  0.00     0.037 A 
ATOM     25  C16  11 d          -8.902 209.191 114.775  0.00  0.00     0.015 A 
BRANCH  23  26
ATOM     26  N7   11 d         -11.288 207.606 112.393  0.00  0.00    -0.116 N 
ATOM     27  O1   11 d         -11.329 207.246 111.307  0.00  0.00    -0.532 OA
ATOM     28  O2   11 d         -12.285 207.382 113.133  0.00  0.00    -0.532 OA
ENDBRANCH  23  26
ENDBRANCH  19  20
ENDBRANCH  15  18
TORSDOF 3
ENDMDL
MODEL 20
REMARK VINA RESULT:      -6.9      4.627      6.172
REMARK  3 active torsions:
REMARK  status: ('A' for Active; 'I' for Inactive)
REMARK       I    between atoms: C9_12  and  N5_15 
REMARK    1  A    between atoms: N5_15  and  N6_16 
REMARK    2  A    between atoms: C10_17  and  C11_18 
REMARK    3  A    between atoms: C14_21  and  N7_22 
ROOT
ATOM      1  C1   11 d          -9.098 208.242 119.247  0.00  0.00     0.138 A 
ATOM      2  C2   11 d          -7.890 208.807 119.598  0.00  0.00     0.026 A 
ATOM      3  C3   11 d          -6.943 207.792 119.514  0.00  0.00     0.046 A 
ATOM      4  C4   11 d          -5.594 208.039 119.796  0.00  0.00     0.032 A 
ATOM      5  C5   11 d          -5.223 209.346 120.176  0.00  0.00     0.021 A 
ATOM      6  C6   11 d          -6.192 210.374 120.267  0.00  0.00     0.011 A 
ATOM      7 Br1   11 d          -5.658 212.149 120.794  0.00  0.00    -0.051 Br
ATOM      8  C7   11 d          -7.547 210.110 119.974  0.00  0.00     0.035 A 
ATOM      9  N1   11 d          -7.545 206.639 119.134  0.00  0.00    -0.338 N 
ATOM     10  C8   11 d          -8.859 206.909 118.972  0.00  0.00     0.179 A 
ATOM     11  N2   11 d          -9.869 206.087 118.594  0.00  0.00    -0.040 NA
ATOM     12  C9   11 d         -11.130 206.614 118.476  0.00  0.00     0.763 A 
ATOM     13  N3   11 d         -11.333 207.952 118.753  0.00  0.00     0.046 NA
ATOM     14  N4   11 d         -10.351 208.753 119.135  0.00  0.00    -0.129 NA
ATOM     15  N5   11 d         -12.161 205.790 118.067  0.00  0.00    -0.104 N 
ATOM     16  H4   11 d          -7.082 205.708 118.987  0.00  0.00     0.167 HD
ATOM     17  H5   11 d         -12.013 204.808 118.039  0.00  0.00     0.208 HD
ENDROOT
BRANCH  15  18
ATOM     18  N6   11 d         -13.336 206.265 117.690  0.00  0.00    -0.172 NA
ATOM     19  C10  11 d         -13.519 206.812 116.505  0.00  0.00     0.150 C 
BRANCH  19  20
ATOM     20  C11  11 d         -12.528 207.060 115.406  0.00  0.00    -0.017 A 
ATOM     21  C12  11 d         -12.116 206.105 114.450  0.00  0.00     0.015 A 
ATOM     22  C13  11 d         -11.173 206.435 113.466  0.00  0.00     0.037 A 
ATOM     23  C14  11 d         -10.590 207.723 113.413  0.00  0.00     0.102 A 
ATOM     24  C15  11 d         -10.990 208.667 114.382  0.00  0.00     0.037 A 
ATOM     25  C16  11 d         -11.940 208.340 115.359  0.00  0.00     0.015 A 
BRANCH  23  26
ATOM     26  N7   11 d          -9.642 208.056 112.442  0.00  0.00    -0.116 N 
ATOM     27  O1   11 d          -8.528 208.102 112.704  0.00  0.00    -0.532 OA
ATOM     28  O2   11 d          -9.981 208.259 111.243  0.00  0.00    -0.532 OA
ENDBRANCH  23  26
ENDBRANCH  19  20
ENDBRANCH  15  18
TORSDOF 3
ENDMDL
