MODEL 1
REMARK VINA RESULT:      -8.7      0.000      0.000
REMARK  1 active torsions:
REMARK  status: ('A' for Active; 'I' for Inactive)
REMARK    1  A    between atoms: C16_19  and  O2_20 
ROOT
ATOM      1  C1   11 d         -12.918 207.503 114.663  0.00  0.00     0.037 C 
ATOM      2  C2   11 d         -14.381 207.761 114.865  0.00  0.00     0.160 C 
ATOM      3  O1   11 d         -14.751 208.885 115.286  0.00  0.00    -0.293 OA
ATOM      4  C3   11 d         -15.426 206.815 114.335  0.00  0.00     0.084 C 
ATOM      5  C4   11 d         -14.841 205.771 113.379  0.00  0.00     0.014 C 
ATOM      6  C5   11 d         -13.702 206.365 112.546  0.00  0.00     0.058 C 
ATOM      7  C6   11 d         -12.602 206.951 113.432  0.00  0.00     0.022 C 
ATOM      8  N1   11 d         -11.321 206.841 112.892  0.00  0.00    -0.357 N 
ATOM      9  C7   11 d         -10.370 207.830 113.023  0.00  0.00     0.059 A 
ATOM     10  C8   11 d         -10.016 208.327 114.287  0.00  0.00     0.055 A 
ATOM     11  C9   11 d          -9.039 209.330 114.405  0.00  0.00     0.031 A 
ATOM     12  C10  11 d          -8.420 209.846 113.256  0.00  0.00     0.002 A 
ATOM     13  C11  11 d          -8.764 209.347 111.991  0.00  0.00     0.002 A 
ATOM     14  C12  11 d          -9.732 208.338 111.875  0.00  0.00     0.032 A 
ATOM     15  N2   11 d         -10.546 207.740 115.408  0.00  0.00    -0.375 N 
ATOM     16  C13  11 d         -11.914 207.904 115.785  0.00  0.00     0.154 C 
ATOM     17  C14  11 d         -12.261 207.174 117.116  0.00  0.00    -0.028 A 
ATOM     18  C15  11 d         -13.454 207.520 117.803  0.00  0.00     0.046 A 
ATOM     19  C16  11 d         -13.829 206.906 119.009  0.00  0.00     0.068 A 
ATOM     20  C18  11 d         -12.981 205.969 119.603  0.00  0.00     0.037 A 
ATOM     21  C19  11 d         -11.793 205.605 118.964  0.00  0.00     0.003 A 
ATOM     22  C20  11 d         -11.437 206.193 117.742  0.00  0.00     0.010 A 
ATOM     23  H7   11 d         -11.076 206.028 112.372  0.00  0.00     0.166 HD
ATOM     24  H12  11 d          -9.901 207.206 115.931  0.00  0.00     0.160 HD
ENDROOT
BRANCH  19  25
ATOM     25  O2   11 d         -14.981 207.356 119.707  0.00  0.00    -0.356 OA
ATOM     26  C17  11 d         -15.239 206.481 120.831  0.00  0.00     0.210 C 
ENDBRANCH  19  25
TORSDOF 1
ENDMDL
MODEL 2
REMARK VINA RESULT:      -8.3      2.637      6.129
REMARK  1 active torsions:
REMARK  status: ('A' for Active; 'I' for Inactive)
REMARK    1  A    between atoms: C16_19  and  O2_20 
ROOT
ATOM      1  C1   11 d         -11.746 207.399 114.017  0.00  0.00     0.037 C 
ATOM      2  C2   11 d         -11.521 208.056 115.345  0.00  0.00     0.160 C 
ATOM      3  O1   11 d         -11.817 209.269 115.486  0.00  0.00    -0.293 OA
ATOM      4  C3   11 d         -11.203 207.249 116.577  0.00  0.00     0.084 C 
ATOM      5  C4   11 d         -11.407 205.747 116.362  0.00  0.00     0.014 C 
ATOM      6  C5   11 d         -12.591 205.480 115.429  0.00  0.00     0.058 C 
ATOM      7  C6   11 d         -12.422 206.192 114.087  0.00  0.00     0.022 C 
ATOM      8  N1   11 d         -12.973 205.502 113.006  0.00  0.00    -0.357 N 
ATOM      9  C7   11 d         -13.615 206.138 111.966  0.00  0.00     0.059 A 
ATOM     10  C8   11 d         -12.982 207.166 111.250  0.00  0.00     0.055 A 
ATOM     11  C9   11 d         -13.647 207.799 110.186  0.00  0.00     0.031 A 
ATOM     12  C10  11 d         -14.951 207.413 109.842  0.00  0.00     0.002 A 
ATOM     13  C11  11 d         -15.584 206.379 110.550  0.00  0.00     0.002 A 
ATOM     14  C12  11 d         -14.917 205.740 111.605  0.00  0.00     0.032 A 
ATOM     15  N2   11 d         -11.670 207.460 111.521  0.00  0.00    -0.375 N 
ATOM     16  C13  11 d         -11.265 208.120 112.722  0.00  0.00     0.154 C 
ATOM     17  C14  11 d          -9.732 208.379 112.777  0.00  0.00    -0.028 A 
ATOM     18  C15  11 d          -9.221 209.317 113.711  0.00  0.00     0.046 A 
ATOM     19  C16  11 d          -7.851 209.603 113.815  0.00  0.00     0.068 A 
ATOM     20  C18  11 d          -6.949 209.002 112.933  0.00  0.00     0.037 A 
ATOM     21  C19  11 d          -7.409 208.078 111.993  0.00  0.00     0.003 A 
ATOM     22  C20  11 d          -8.774 207.767 111.914  0.00  0.00     0.010 A 
ATOM     23  H7   11 d         -12.925 204.508 112.984  0.00  0.00     0.166 HD
ATOM     24  H12  11 d         -11.036 207.185 110.816  0.00  0.00     0.160 HD
ENDROOT
BRANCH  19  25
ATOM     25  O2   11 d          -7.402 210.621 114.697  0.00  0.00    -0.356 OA
ATOM     26  C17  11 d          -6.005 210.406 115.015  0.00  0.00     0.210 C 
ENDBRANCH  19  25
TORSDOF 1
ENDMDL
MODEL 3
REMARK VINA RESULT:      -8.0      2.598      5.336
REMARK  1 active torsions:
REMARK  status: ('A' for Active; 'I' for Inactive)
REMARK    1  A    between atoms: C16_19  and  O2_20 
ROOT
ATOM      1  C1   11 d         -11.362 207.204 114.428  0.00  0.00     0.037 C 
ATOM      2  C2   11 d         -12.021 206.077 115.165  0.00  0.00     0.160 C 
ATOM      3  O1   11 d         -11.595 204.907 115.002  0.00  0.00    -0.293 OA
ATOM      4  C3   11 d         -12.995 206.335 116.285  0.00  0.00     0.084 C 
ATOM      5  C4   11 d         -13.004 207.800 116.728  0.00  0.00     0.014 C 
ATOM      6  C5   11 d         -11.604 208.413 116.635  0.00  0.00     0.058 C 
ATOM      7  C6   11 d         -11.027 208.287 115.225  0.00  0.00     0.022 C 
ATOM      8  N1   11 d         -10.198 209.346 114.855  0.00  0.00    -0.357 N 
ATOM      9  C7   11 d          -9.056 209.170 114.104  0.00  0.00     0.059 A 
ATOM     10  C8   11 d          -9.102 208.507 112.867  0.00  0.00     0.055 A 
ATOM     11  C9   11 d          -7.930 208.343 112.109  0.00  0.00     0.031 A 
ATOM     12  C10  11 d          -6.707 208.834 112.590  0.00  0.00     0.002 A 
ATOM     13  C11  11 d          -6.658 209.506 113.821  0.00  0.00     0.002 A 
ATOM     14  C12  11 d          -7.829 209.679 114.573  0.00  0.00     0.032 A 
ATOM     15  N2   11 d         -10.318 208.129 112.356  0.00  0.00    -0.375 N 
ATOM     16  C13  11 d         -11.077 207.050 112.904  0.00  0.00     0.154 C 
ATOM     17  C14  11 d         -12.399 206.791 112.124  0.00  0.00    -0.028 A 
ATOM     18  C15  11 d         -13.081 205.560 112.309  0.00  0.00     0.046 A 
ATOM     19  C16  11 d         -14.276 205.257 111.637  0.00  0.00     0.068 A 
ATOM     20  C18  11 d         -14.792 206.155 110.701  0.00  0.00     0.037 A 
ATOM     21  C19  11 d         -14.148 207.375 110.482  0.00  0.00     0.003 A 
ATOM     22  C20  11 d         -12.974 207.692 111.180  0.00  0.00     0.010 A 
ATOM     23  H7   11 d         -10.417 210.269 115.157  0.00  0.00     0.166 HD
ATOM     24  H12  11 d         -10.615 208.659 111.578  0.00  0.00     0.160 HD
ENDROOT
BRANCH  19  25
ATOM     25  O2   11 d         -14.866 203.973 111.783  0.00  0.00    -0.356 OA
ATOM     26  C17  11 d         -14.269 203.056 110.834  0.00  0.00     0.210 C 
ENDBRANCH  19  25
TORSDOF 1
ENDMDL
MODEL 4
REMARK VINA RESULT:      -7.6      5.918      7.525
REMARK  1 active torsions:
REMARK  status: ('A' for Active; 'I' for Inactive)
REMARK    1  A    between atoms: C16_19  and  O2_20 
ROOT
ATOM      1  C1   11 d          -5.772 208.837 113.696  0.00  0.00     0.037 C 
ATOM      2  C2   11 d          -6.806 209.741 114.298  0.00  0.00     0.160 C 
ATOM      3  O1   11 d          -6.437 210.797 114.870  0.00  0.00    -0.293 OA
ATOM      4  C3   11 d          -8.273 209.557 114.010  0.00  0.00     0.084 C 
ATOM      5  C4   11 d          -8.527 208.566 112.872  0.00  0.00     0.014 C 
ATOM      6  C5   11 d          -7.437 208.665 111.802  0.00  0.00     0.058 C 
ATOM      7  C6   11 d          -6.044 208.448 112.394  0.00  0.00     0.022 C 
ATOM      8  N1   11 d          -5.149 207.824 111.525  0.00  0.00    -0.357 N 
ATOM      9  C7   11 d          -3.816 208.168 111.457  0.00  0.00     0.059 A 
ATOM     10  C8   11 d          -3.013 208.172 112.608  0.00  0.00     0.055 A 
ATOM     11  C9   11 d          -1.653 208.517 112.520  0.00  0.00     0.031 A 
ATOM     12  C10  11 d          -1.096 208.868 111.282  0.00  0.00     0.002 A 
ATOM     13  C11  11 d          -1.893 208.856 110.126  0.00  0.00     0.002 A 
ATOM     14  C12  11 d          -3.248 208.502 110.213  0.00  0.00     0.032 A 
ATOM     15  N2   11 d          -3.539 207.722 113.792  0.00  0.00    -0.375 N 
ATOM     16  C13  11 d          -4.510 208.466 114.531  0.00  0.00     0.154 C 
ATOM     17  C14  11 d          -4.919 207.765 115.859  0.00  0.00    -0.028 A 
ATOM     18  C15  11 d          -5.588 208.516 116.860  0.00  0.00     0.046 A 
ATOM     19  C16  11 d          -5.984 207.950 118.083  0.00  0.00     0.068 A 
ATOM     20  C18  11 d          -5.660 206.623 118.370  0.00  0.00     0.037 A 
ATOM     21  C19  11 d          -4.995 205.849 117.416  0.00  0.00     0.003 A 
ATOM     22  C20  11 d          -4.632 206.405 116.181  0.00  0.00     0.010 A 
ATOM     23  H7   11 d          -5.478 207.114 110.910  0.00  0.00     0.166 HD
ATOM     24  H12  11 d          -3.185 206.850 114.090  0.00  0.00     0.160 HD
ENDROOT
BRANCH  19  25
ATOM     25  O2   11 d          -6.561 208.769 119.090  0.00  0.00    -0.356 OA
ATOM     26  C17  11 d          -5.854 210.032 119.152  0.00  0.00     0.210 C 
ENDBRANCH  19  25
TORSDOF 1
ENDMDL
MODEL 5
REMARK VINA RESULT:      -7.5      5.774      7.731
REMARK  1 active torsions:
REMARK  status: ('A' for Active; 'I' for Inactive)
REMARK    1  A    between atoms: C16_19  and  O2_20 
ROOT
ATOM      1  C1   11 d          -5.406 207.538 116.106  0.00  0.00     0.037 C 
ATOM      2  C2   11 d          -5.019 206.373 116.967  0.00  0.00     0.160 C 
ATOM      3  O1   11 d          -5.915 205.742 117.581  0.00  0.00    -0.293 OA
ATOM      4  C3   11 d          -3.636 205.779 116.909  0.00  0.00     0.084 C 
ATOM      5  C4   11 d          -2.819 206.309 115.728  0.00  0.00     0.014 C 
ATOM      6  C5   11 d          -3.711 206.555 114.508  0.00  0.00     0.058 C 
ATOM      7  C6   11 d          -4.859 207.512 114.833  0.00  0.00     0.022 C 
ATOM      8  N1   11 d          -5.241 208.323 113.765  0.00  0.00    -0.357 N 
ATOM      9  C7   11 d          -6.555 208.652 113.513  0.00  0.00     0.059 A 
ATOM     10  C8   11 d          -7.355 209.236 114.508  0.00  0.00     0.055 A 
ATOM     11  C9   11 d          -8.691 209.574 114.233  0.00  0.00     0.031 A 
ATOM     12  C10  11 d          -9.234 209.319 112.964  0.00  0.00     0.002 A 
ATOM     13  C11  11 d          -8.435 208.743 111.964  0.00  0.00     0.002 A 
ATOM     14  C12  11 d          -7.098 208.416 112.235  0.00  0.00     0.032 A 
ATOM     15  N2   11 d          -6.785 209.582 115.707  0.00  0.00    -0.375 N 
ATOM     16  C13  11 d          -6.385 208.608 116.673  0.00  0.00     0.154 C 
ATOM     17  C14  11 d          -5.805 209.251 117.967  0.00  0.00    -0.028 A 
ATOM     18  C15  11 d          -5.693 208.463 119.141  0.00  0.00     0.046 A 
ATOM     19  C16  11 d          -5.182 208.976 120.343  0.00  0.00     0.068 A 
ATOM     20  C18  11 d          -4.827 210.325 120.426  0.00  0.00     0.037 A 
ATOM     21  C19  11 d          -4.928 211.139 119.296  0.00  0.00     0.003 A 
ATOM     22  C20  11 d          -5.405 210.615 118.086  0.00  0.00     0.010 A 
ATOM     23  H7   11 d          -4.548 208.668 113.139  0.00  0.00     0.166 HD
ATOM     24  H12  11 d          -6.684 210.554 115.844  0.00  0.00     0.160 HD
ENDROOT
BRANCH  19  25
ATOM     25  O2   11 d          -5.183 208.175 121.516  0.00  0.00    -0.356 OA
ATOM     26  C17  11 d          -5.580 206.823 121.178  0.00  0.00     0.210 C 
ENDBRANCH  19  25
TORSDOF 1
ENDMDL
MODEL 6
REMARK VINA RESULT:      -7.3      4.631      6.702
REMARK  1 active torsions:
REMARK  status: ('A' for Active; 'I' for Inactive)
REMARK    1  A    between atoms: C16_19  and  O2_20 
ROOT
ATOM      1  C1   11 d          -7.632 208.468 116.570  0.00  0.00     0.037 C 
ATOM      2  C2   11 d          -6.149 208.251 116.603  0.00  0.00     0.160 C 
ATOM      3  O1   11 d          -5.706 207.091 116.797  0.00  0.00    -0.293 OA
ATOM      4  C3   11 d          -5.188 209.319 116.152  0.00  0.00     0.084 C 
ATOM      5  C4   11 d          -5.892 210.476 115.437  0.00  0.00     0.014 C 
ATOM      6  C5   11 d          -7.082 209.973 114.615  0.00  0.00     0.058 C 
ATOM      7  C6   11 d          -8.076 209.198 115.479  0.00  0.00     0.022 C 
ATOM      8  N1   11 d          -9.405 209.334 115.075  0.00  0.00    -0.357 N 
ATOM      9  C7   11 d         -10.306 208.293 115.118  0.00  0.00     0.059 A 
ATOM     10  C8   11 d         -10.527 207.580 116.307  0.00  0.00     0.055 A 
ATOM     11  C9   11 d         -11.456 206.525 116.336  0.00  0.00     0.031 A 
ATOM     12  C10  11 d         -12.159 206.175 115.174  0.00  0.00     0.002 A 
ATOM     13  C11  11 d         -11.948 206.891 113.985  0.00  0.00     0.002 A 
ATOM     14  C12  11 d         -11.029 207.951 113.959  0.00  0.00     0.032 A 
ATOM     15  N2   11 d          -9.918 208.000 117.462  0.00  0.00    -0.375 N 
ATOM     16  C13  11 d          -8.516 207.842 117.690  0.00  0.00     0.154 C 
ATOM     17  C14  11 d          -8.074 208.359 119.090  0.00  0.00    -0.028 A 
ATOM     18  C15  11 d          -6.814 207.963 119.607  0.00  0.00     0.046 A 
ATOM     19  C16  11 d          -6.351 208.389 120.862  0.00  0.00     0.068 A 
ATOM     20  C18  11 d          -7.173 209.175 121.674  0.00  0.00     0.037 A 
ATOM     21  C19  11 d          -8.425 209.581 121.207  0.00  0.00     0.003 A 
ATOM     22  C20  11 d          -8.870 209.185 119.938  0.00  0.00     0.010 A 
ATOM     23  H7   11 d          -9.722 210.209 114.720  0.00  0.00     0.166 HD
ATOM     24  H12  11 d         -10.530 208.410 118.119  0.00  0.00     0.160 HD
ENDROOT
BRANCH  19  25
ATOM     25  O2   11 d          -5.127 207.885 121.376  0.00  0.00    -0.356 OA
ATOM     26  C17  11 d          -4.192 207.684 120.288  0.00  0.00     0.210 C 
ENDBRANCH  19  25
TORSDOF 1
ENDMDL
MODEL 7
REMARK VINA RESULT:      -6.8      6.649      9.454
REMARK  1 active torsions:
REMARK  status: ('A' for Active; 'I' for Inactive)
REMARK    1  A    between atoms: C16_19  and  O2_20 
ROOT
ATOM      1  C1   11 d          -5.050 207.947 117.596  0.00  0.00     0.037 C 
ATOM      2  C2   11 d          -4.005 207.106 116.927  0.00  0.00     0.160 C 
ATOM      3  O1   11 d          -2.938 207.648 116.543  0.00  0.00    -0.293 OA
ATOM      4  C3   11 d          -4.081 205.602 116.939  0.00  0.00     0.084 C 
ATOM      5  C4   11 d          -5.146 205.076 117.904  0.00  0.00     0.014 C 
ATOM      6  C5   11 d          -5.246 205.962 119.149  0.00  0.00     0.058 C 
ATOM      7  C6   11 d          -5.532 207.419 118.783  0.00  0.00     0.022 C 
ATOM      8  N1   11 d          -6.312 208.096 119.721  0.00  0.00    -0.357 N 
ATOM      9  C7   11 d          -6.099 209.416 120.052  0.00  0.00     0.059 A 
ATOM     10  C8   11 d          -6.061 210.411 119.062  0.00  0.00     0.055 A 
ATOM     11  C9   11 d          -5.850 211.754 119.417  0.00  0.00     0.031 A 
ATOM     12  C10  11 d          -5.668 212.105 120.763  0.00  0.00     0.002 A 
ATOM     13  C11  11 d          -5.714 211.115 121.757  0.00  0.00     0.002 A 
ATOM     14  C12  11 d          -5.934 209.776 121.404  0.00  0.00     0.032 A 
ATOM     15  N2   11 d          -6.350 210.073 117.764  0.00  0.00    -0.375 N 
ATOM     16  C13  11 d          -5.456 209.307 116.954  0.00  0.00     0.154 C 
ATOM     17  C14  11 d          -5.991 209.093 115.509  0.00  0.00    -0.028 A 
ATOM     18  C15  11 d          -5.093 208.671 114.494  0.00  0.00     0.046 A 
ATOM     19  C16  11 d          -5.504 208.459 113.169  0.00  0.00     0.068 A 
ATOM     20  C18  11 d          -6.824 208.732 112.801  0.00  0.00     0.037 A 
ATOM     21  C19  11 d          -7.739 209.157 113.766  0.00  0.00     0.003 A 
ATOM     22  C20  11 d          -7.335 209.333 115.097  0.00  0.00     0.010 A 
ATOM     23  H7   11 d          -7.044 207.611 120.191  0.00  0.00     0.166 HD
ATOM     24  H12  11 d          -7.219 210.411 117.439  0.00  0.00     0.160 HD
ENDROOT
BRANCH  19  25
ATOM     25  O2   11 d          -4.547 208.133 112.172  0.00  0.00    -0.356 OA
ATOM     26  C17  11 d          -3.362 207.584 112.799  0.00  0.00     0.210 C 
ENDBRANCH  19  25
TORSDOF 1
ENDMDL
MODEL 8
REMARK VINA RESULT:      -6.8      4.443      8.706
REMARK  1 active torsions:
REMARK  status: ('A' for Active; 'I' for Inactive)
REMARK    1  A    between atoms: C16_19  and  O2_20 
ROOT
ATOM      1  C1   11 d         -15.884 203.700 120.364  0.00  0.00     0.037 C 
ATOM      2  C2   11 d         -16.630 203.082 119.221  0.00  0.00     0.160 C 
ATOM      3  O1   11 d         -16.095 202.147 118.574  0.00  0.00    -0.293 OA
ATOM      4  C3   11 d         -18.093 203.364 118.993  0.00  0.00     0.084 C 
ATOM      5  C4   11 d         -18.739 204.094 120.173  0.00  0.00     0.014 C 
ATOM      6  C5   11 d         -18.139 203.630 121.503  0.00  0.00     0.058 C 
ATOM      7  C6   11 d         -16.622 203.812 121.532  0.00  0.00     0.022 C 
ATOM      8  N1   11 d         -16.111 204.116 122.794  0.00  0.00    -0.357 N 
ATOM      9  C7   11 d         -14.912 203.614 123.252  0.00  0.00     0.059 A 
ATOM     10  C8   11 d         -13.731 203.778 122.509  0.00  0.00     0.055 A 
ATOM     11  C9   11 d         -12.515 203.267 122.994  0.00  0.00     0.031 A 
ATOM     12  C10  11 d         -12.477 202.583 124.218  0.00  0.00     0.002 A 
ATOM     13  C11  11 d         -13.653 202.425 124.968  0.00  0.00     0.002 A 
ATOM     14  C12  11 d         -14.866 202.943 124.489  0.00  0.00     0.032 A 
ATOM     15  N2   11 d         -13.759 204.542 121.370  0.00  0.00    -0.375 N 
ATOM     16  C13  11 d         -14.392 204.103 120.167  0.00  0.00     0.154 C 
ATOM     17  C14  11 d         -14.250 205.129 119.006  0.00  0.00    -0.028 A 
ATOM     18  C15  11 d         -14.504 204.706 117.675  0.00  0.00     0.046 A 
ATOM     19  C16  11 d         -14.394 205.576 116.578  0.00  0.00     0.068 A 
ATOM     20  C18  11 d         -13.956 206.887 116.775  0.00  0.00     0.037 A 
ATOM     21  C19  11 d         -13.687 207.342 118.067  0.00  0.00     0.003 A 
ATOM     22  C20  11 d         -13.833 206.483 119.166  0.00  0.00     0.010 A 
ATOM     23  H7   11 d         -16.633 204.702 123.406  0.00  0.00     0.166 HD
ATOM     24  H12  11 d         -13.299 205.412 121.453  0.00  0.00     0.160 HD
ENDROOT
BRANCH  19  25
ATOM     25  O2   11 d         -14.563 205.079 115.258  0.00  0.00    -0.356 OA
ATOM     26  C17  11 d         -15.382 205.999 114.496  0.00  0.00     0.210 C 
ENDBRANCH  19  25
TORSDOF 1
ENDMDL
MODEL 9
REMARK VINA RESULT:      -6.7      5.185      7.378
REMARK  1 active torsions:
REMARK  status: ('A' for Active; 'I' for Inactive)
REMARK    1  A    between atoms: C16_19  and  O2_20 
ROOT
ATOM      1  C1   11 d          -6.266 208.973 118.314  0.00  0.00     0.037 C 
ATOM      2  C2   11 d          -6.946 209.095 119.645  0.00  0.00     0.160 C 
ATOM      3  O1   11 d          -7.220 208.052 120.289  0.00  0.00    -0.293 OA
ATOM      4  C3   11 d          -7.069 210.423 120.346  0.00  0.00     0.084 C 
ATOM      5  C4   11 d          -6.214 211.511 119.692  0.00  0.00     0.014 C 
ATOM      6  C5   11 d          -4.905 210.932 119.150  0.00  0.00     0.058 C 
ATOM      7  C6   11 d          -5.159 209.792 118.164  0.00  0.00     0.022 C 
ATOM      8  N1   11 d          -4.212 209.704 117.143  0.00  0.00    -0.357 N 
ATOM      9  C7   11 d          -3.756 208.500 116.652  0.00  0.00     0.059 A 
ATOM     10  C8   11 d          -4.653 207.526 116.183  0.00  0.00     0.055 A 
ATOM     11  C9   11 d          -4.172 206.306 115.679  0.00  0.00     0.031 A 
ATOM     12  C10  11 d          -2.792 206.052 115.651  0.00  0.00     0.002 A 
ATOM     13  C11  11 d          -1.891 207.026 116.111  0.00  0.00     0.002 A 
ATOM     14  C12  11 d          -2.371 208.248 116.604  0.00  0.00     0.032 A 
ATOM     15  N2   11 d          -5.989 207.828 116.112  0.00  0.00    -0.375 N 
ATOM     16  C13  11 d          -6.810 207.947 117.276  0.00  0.00     0.154 C 
ATOM     17  C14  11 d          -8.297 208.253 116.931  0.00  0.00    -0.028 A 
ATOM     18  C15  11 d          -9.292 208.055 117.923  0.00  0.00     0.046 A 
ATOM     19  C16  11 d         -10.652 208.307 117.684  0.00  0.00     0.068 A 
ATOM     20  C18  11 d         -11.069 208.703 116.411  0.00  0.00     0.037 A 
ATOM     21  C19  11 d         -10.124 208.902 115.402  0.00  0.00     0.003 A 
ATOM     22  C20  11 d          -8.762 208.685 115.654  0.00  0.00     0.010 A 
ATOM     23  H7   11 d          -3.828 210.537 116.758  0.00  0.00     0.166 HD
ATOM     24  H12  11 d          -6.332 207.945 115.194  0.00  0.00     0.160 HD
ENDROOT
BRANCH  19  25
ATOM     25  O2   11 d         -11.618 207.999 118.678  0.00  0.00    -0.356 OA
ATOM     26  C17  11 d         -12.815 207.482 118.047  0.00  0.00     0.210 C 
ENDBRANCH  19  25
TORSDOF 1
ENDMDL
MODEL 10
REMARK VINA RESULT:      -6.7      5.531      9.855
REMARK  1 active torsions:
REMARK  status: ('A' for Active; 'I' for Inactive)
REMARK    1  A    between atoms: C16_19  and  O2_20 
ROOT
ATOM      1  C1   11 d         -17.182 204.468 121.705  0.00  0.00     0.037 C 
ATOM      2  C2   11 d         -17.517 203.400 120.708  0.00  0.00     0.160 C 
ATOM      3  O1   11 d         -16.853 202.334 120.707  0.00  0.00    -0.293 OA
ATOM      4  C3   11 d         -18.782 203.457 119.891  0.00  0.00     0.084 C 
ATOM      5  C4   11 d         -19.752 204.533 120.387  0.00  0.00     0.014 C 
ATOM      6  C5   11 d         -19.694 204.666 121.911  0.00  0.00     0.058 C 
ATOM      7  C6   11 d         -18.275 204.964 122.397  0.00  0.00     0.022 C 
ATOM      8  N1   11 d         -18.224 205.770 123.535  0.00  0.00    -0.357 N 
ATOM      9  C7   11 d         -17.301 205.580 124.540  0.00  0.00     0.059 A 
ATOM     10  C8   11 d         -15.926 205.536 124.258  0.00  0.00     0.055 A 
ATOM     11  C9   11 d         -14.997 205.350 125.296  0.00  0.00     0.031 A 
ATOM     12  C10  11 d         -15.441 205.196 126.618  0.00  0.00     0.002 A 
ATOM     13  C11  11 d         -16.814 205.247 126.906  0.00  0.00     0.002 A 
ATOM     14  C12  11 d         -17.741 205.444 125.871  0.00  0.00     0.032 A 
ATOM     15  N2   11 d         -15.497 205.798 122.982  0.00  0.00    -0.375 N 
ATOM     16  C13  11 d         -15.693 204.880 121.905  0.00  0.00     0.154 C 
ATOM     17  C14  11 d         -15.080 205.386 120.566  0.00  0.00    -0.028 A 
ATOM     18  C15  11 d         -14.876 204.465 119.507  0.00  0.00     0.046 A 
ATOM     19  C16  11 d         -14.327 204.849 118.273  0.00  0.00     0.068 A 
ATOM     20  C18  11 d         -13.898 206.165 118.086  0.00  0.00     0.037 A 
ATOM     21  C19  11 d         -14.073 207.103 119.106  0.00  0.00     0.003 A 
ATOM     22  C20  11 d         -14.655 206.726 120.324  0.00  0.00     0.010 A 
ATOM     23  H7   11 d         -18.887 206.504 123.646  0.00  0.00     0.166 HD
ATOM     24  H12  11 d         -15.037 206.665 122.876  0.00  0.00     0.160 HD
ENDROOT
BRANCH  19  25
ATOM     25  O2   11 d         -14.052 203.871 117.282  0.00  0.00    -0.356 OA
ATOM     26  C17  11 d         -15.143 202.919 117.225  0.00  0.00     0.210 C 
ENDBRANCH  19  25
TORSDOF 1
ENDMDL
