MODEL 1
REMARK VINA RESULT:      -9.6      0.000      0.000
REMARK  2 active torsions:
REMARK  status: ('A' for Active; 'I' for Inactive)
REMARK    1  A    between atoms: C1_1  and  C2_2 
REMARK    2  A    between atoms: C5_5  and  N1_8 
REMARK       I    between atoms: N1_8  and  C8_9 
ROOT
ATOM      1  N1   11 d         -10.367 207.697 111.782  0.00  0.00    -0.188 N 
ATOM      2  C8   11 d          -9.750 208.172 112.927  0.00  0.00     0.727 A 
ATOM      3  N2   11 d          -8.406 208.401 112.898  0.00  0.00    -0.061 NA
ATOM      4  C9   11 d          -7.720 208.890 113.975  0.00  0.00     0.096 A 
ATOM      5  C10  11 d          -6.251 209.100 113.856  0.00  0.00     0.060 A 
ATOM      6  C11  11 d          -5.403 209.943 114.592  0.00  0.00     0.051 A 
ATOM      7  N3   11 d          -4.127 209.866 114.122  0.00  0.00    -0.250 NA
ATOM      8  C12  11 d          -4.029 208.943 113.140  0.00  0.00     0.072 A 
ATOM      9  S1   11 d          -5.391 208.400 112.847  0.00  0.00    -0.071 SA
ATOM     10  C13  11 d          -2.795 208.650 112.350  0.00  0.00     0.078 C 
ATOM     11  C14  11 d          -5.802 211.025 115.549  0.00  0.00     0.072 C 
ATOM     12  C15  11 d          -8.432 209.145 115.162  0.00  0.00     0.053 A 
ATOM     13  C16  11 d          -9.813 208.925 115.179  0.00  0.00     0.139 A 
ATOM     14  N4   11 d         -10.442 208.454 114.069  0.00  0.00    -0.075 NA
ATOM     15  H5   11 d          -9.835 207.716 110.941  0.00  0.00     0.184 HD
ENDROOT
BRANCH   1  16
ATOM     16  C5   11 d         -11.667 207.206 111.721  0.00  0.00     0.049 A 
ATOM     17  C4   11 d         -12.231 206.646 112.882  0.00  0.00     0.031 A 
ATOM     18  C3   11 d         -13.542 206.149 112.877  0.00  0.00     0.018 A 
ATOM     19  C2   11 d         -14.337 206.226 111.713  0.00  0.00     0.048 A 
ATOM     20  C7   11 d         -13.767 206.772 110.545  0.00  0.00     0.018 A 
ATOM     21  C6   11 d         -12.456 207.275 110.553  0.00  0.00     0.031 A 
BRANCH  19  22
ATOM     22  C1   11 d         -15.715 205.604 111.675  0.00  0.00     0.417 C 
ATOM     23  F1   11 d         -16.381 205.775 112.885  0.00  0.00    -0.166 F 
ATOM     24  F2   11 d         -15.586 204.242 111.425  0.00  0.00    -0.166 F 
ATOM     25  F3   11 d         -16.504 206.167 110.675  0.00  0.00    -0.166 F 
ENDBRANCH  19  22
ENDBRANCH   1  16
TORSDOF 2
ENDMDL
MODEL 2
REMARK VINA RESULT:      -9.4      1.555      2.523
REMARK  2 active torsions:
REMARK  status: ('A' for Active; 'I' for Inactive)
REMARK    1  A    between atoms: C1_1  and  C2_2 
REMARK    2  A    between atoms: C5_5  and  N1_8 
REMARK       I    between atoms: N1_8  and  C8_9 
ROOT
ATOM      1  N1   11 d         -10.641 207.480 113.904  0.00  0.00    -0.188 N 
ATOM      2  C8   11 d          -9.500 208.012 113.328  0.00  0.00     0.727 A 
ATOM      3  N2   11 d          -8.448 208.329 114.134  0.00  0.00    -0.061 NA
ATOM      4  C9   11 d          -7.276 208.838 113.648  0.00  0.00     0.096 A 
ATOM      5  C10  11 d          -6.182 209.166 114.604  0.00  0.00     0.060 A 
ATOM      6  C11  11 d          -4.801 209.281 114.382  0.00  0.00     0.051 A 
ATOM      7  N3   11 d          -4.149 209.547 115.548  0.00  0.00    -0.250 NA
ATOM      8  C12  11 d          -5.025 209.703 116.565  0.00  0.00     0.072 A 
ATOM      9  S1   11 d          -6.406 209.427 116.063  0.00  0.00    -0.071 SA
ATOM     10  C13  11 d          -4.656 209.930 117.996  0.00  0.00     0.078 C 
ATOM     11  C14  11 d          -4.040 208.883 113.154  0.00  0.00     0.072 C 
ATOM     12  C15  11 d          -7.167 209.060 112.262  0.00  0.00     0.053 A 
ATOM     13  C16  11 d          -8.243 208.716 111.439  0.00  0.00     0.139 A 
ATOM     14  N4   11 d          -9.377 208.196 111.981  0.00  0.00    -0.075 NA
ATOM     15  H5   11 d         -10.573 207.187 114.853  0.00  0.00     0.184 HD
ENDROOT
BRANCH   1  16
ATOM     16  C5   11 d         -11.863 207.320 113.257  0.00  0.00     0.049 A 
ATOM     17  C4   11 d         -11.920 206.487 112.124  0.00  0.00     0.031 A 
ATOM     18  C3   11 d         -13.130 206.282 111.444  0.00  0.00     0.018 A 
ATOM     19  C2   11 d         -14.322 206.883 111.899  0.00  0.00     0.048 A 
ATOM     20  C7   11 d         -14.262 207.730 113.025  0.00  0.00     0.018 A 
ATOM     21  C6   11 d         -13.052 207.930 113.709  0.00  0.00     0.031 A 
BRANCH  19  22
ATOM     22  C1   11 d         -15.607 206.744 111.114  0.00  0.00     0.417 C 
ATOM     23  F1   11 d         -16.643 207.458 111.708  0.00  0.00    -0.166 F 
ATOM     24  F2   11 d         -15.962 205.400 111.067  0.00  0.00    -0.166 F 
ATOM     25  F3   11 d         -15.465 207.212 109.810  0.00  0.00    -0.166 F 
ENDBRANCH  19  22
ENDBRANCH   1  16
TORSDOF 2
ENDMDL
MODEL 3
REMARK VINA RESULT:      -9.3      2.987      3.681
REMARK  2 active torsions:
REMARK  status: ('A' for Active; 'I' for Inactive)
REMARK    1  A    between atoms: C1_1  and  C2_2 
REMARK    2  A    between atoms: C5_5  and  N1_8 
REMARK       I    between atoms: N1_8  and  C8_9 
ROOT
ATOM      1  N1   11 d         -10.988 208.235 114.350  0.00  0.00    -0.188 N 
ATOM      2  C8   11 d         -10.742 207.856 115.659  0.00  0.00     0.727 A 
ATOM      3  N2   11 d          -9.575 208.247 116.244  0.00  0.00    -0.061 NA
ATOM      4  C9   11 d          -9.261 207.936 117.538  0.00  0.00     0.096 A 
ATOM      5  C10  11 d          -7.957 208.396 118.092  0.00  0.00     0.060 A 
ATOM      6  C11  11 d          -7.570 208.597 119.426  0.00  0.00     0.051 A 
ATOM      7  N3   11 d          -6.296 209.075 119.488  0.00  0.00    -0.250 NA
ATOM      8  C12  11 d          -5.745 209.141 118.256  0.00  0.00     0.072 A 
ATOM      9  S1   11 d          -6.775 208.756 117.243  0.00  0.00    -0.071 SA
ATOM     10  C13  11 d          -4.389 209.687 117.944  0.00  0.00     0.078 C 
ATOM     11  C14  11 d          -8.452 208.610 120.638  0.00  0.00     0.072 C 
ATOM     12  C15  11 d         -10.174 207.166 118.281  0.00  0.00     0.053 A 
ATOM     13  C16  11 d         -11.378 206.784 117.681  0.00  0.00     0.139 A 
ATOM     14  N4   11 d         -11.641 207.139 116.395  0.00  0.00    -0.075 NA
ATOM     15  H5   11 d         -10.385 208.924 113.958  0.00  0.00     0.184 HD
ENDROOT
BRANCH   1  16
ATOM     16  C5   11 d         -12.011 207.734 113.552  0.00  0.00     0.049 A 
ATOM     17  C4   11 d         -11.682 206.827 112.526  0.00  0.00     0.031 A 
ATOM     18  C3   11 d         -12.678 206.283 111.703  0.00  0.00     0.018 A 
ATOM     19  C2   11 d         -14.035 206.609 111.902  0.00  0.00     0.048 A 
ATOM     20  C7   11 d         -14.364 207.529 112.919  0.00  0.00     0.018 A 
ATOM     21  C6   11 d         -13.367 208.069 113.747  0.00  0.00     0.031 A 
BRANCH  19  22
ATOM     22  C1   11 d         -15.100 206.101 110.955  0.00  0.00     0.417 C 
ATOM     23  F1   11 d         -16.253 205.731 111.642  0.00  0.00    -0.166 F 
ATOM     24  F2   11 d         -14.608 204.990 110.280  0.00  0.00    -0.166 F 
ATOM     25  F3   11 d         -15.459 207.068 110.020  0.00  0.00    -0.166 F 
ENDBRANCH  19  22
ENDBRANCH   1  16
TORSDOF 2
ENDMDL
MODEL 4
REMARK VINA RESULT:      -8.6      4.243      5.544
REMARK  2 active torsions:
REMARK  status: ('A' for Active; 'I' for Inactive)
REMARK    1  A    between atoms: C1_1  and  C2_2 
REMARK    2  A    between atoms: C5_5  and  N1_8 
REMARK       I    between atoms: N1_8  and  C8_9 
ROOT
ATOM      1  N1   11 d         -12.350 205.768 115.459  0.00  0.00    -0.188 N 
ATOM      2  C8   11 d         -11.549 206.694 116.106  0.00  0.00     0.727 A 
ATOM      3  N2   11 d         -11.050 206.379 117.336  0.00  0.00    -0.061 NA
ATOM      4  C9   11 d         -10.235 207.224 118.036  0.00  0.00     0.096 A 
ATOM      5  C10  11 d          -9.745 206.801 119.377  0.00  0.00     0.060 A 
ATOM      6  C11  11 d          -8.619 207.231 120.097  0.00  0.00     0.051 A 
ATOM      7  N3   11 d          -8.510 206.546 121.270  0.00  0.00    -0.250 NA
ATOM      8  C12  11 d          -9.559 205.711 121.440  0.00  0.00     0.072 A 
ATOM      9  S1   11 d         -10.423 205.764 120.221  0.00  0.00    -0.071 SA
ATOM     10  C13  11 d          -9.727 204.756 122.577  0.00  0.00     0.078 C 
ATOM     11  C14  11 d          -7.486 208.076 119.597  0.00  0.00     0.072 C 
ATOM     12  C15  11 d          -9.919 208.472 117.469  0.00  0.00     0.053 A 
ATOM     13  C16  11 d         -10.419 208.781 116.200  0.00  0.00     0.139 A 
ATOM     14  N4   11 d         -11.212 207.891 115.545  0.00  0.00    -0.075 NA
ATOM     15  H5   11 d         -12.376 204.848 115.839  0.00  0.00     0.184 HD
ENDROOT
BRANCH   1  16
ATOM     16  C5   11 d         -13.108 206.025 114.320  0.00  0.00     0.049 A 
ATOM     17  C4   11 d         -12.452 206.098 113.077  0.00  0.00     0.031 A 
ATOM     18  C3   11 d         -13.172 206.341 111.899  0.00  0.00     0.018 A 
ATOM     19  C2   11 d         -14.574 206.490 111.929  0.00  0.00     0.048 A 
ATOM     20  C7   11 d         -15.229 206.433 113.176  0.00  0.00     0.018 A 
ATOM     21  C6   11 d         -14.509 206.183 114.355  0.00  0.00     0.031 A 
BRANCH  19  22
ATOM     22  C1   11 d         -15.341 206.849 110.676  0.00  0.00     0.417 C 
ATOM     23  F1   11 d         -16.654 206.392 110.738  0.00  0.00    -0.166 F 
ATOM     24  F2   11 d         -14.716 206.262 109.582  0.00  0.00    -0.166 F 
ATOM     25  F3   11 d         -15.384 208.227 110.478  0.00  0.00    -0.166 F 
ENDBRANCH  19  22
ENDBRANCH   1  16
TORSDOF 2
ENDMDL
MODEL 5
REMARK VINA RESULT:      -8.6      5.058      7.063
REMARK  2 active torsions:
REMARK  status: ('A' for Active; 'I' for Inactive)
REMARK    1  A    between atoms: C1_1  and  C2_2 
REMARK    2  A    between atoms: C5_5  and  N1_8 
REMARK       I    between atoms: N1_8  and  C8_9 
ROOT
ATOM      1  N1   11 d         -12.813 205.236 116.619  0.00  0.00    -0.188 N 
ATOM      2  C8   11 d         -13.148 205.790 115.394  0.00  0.00     0.727 A 
ATOM      3  N2   11 d         -12.162 206.357 114.643  0.00  0.00    -0.061 NA
ATOM      4  C9   11 d         -12.399 206.907 113.413  0.00  0.00     0.096 A 
ATOM      5  C10  11 d         -11.264 207.515 112.666  0.00  0.00     0.060 A 
ATOM      6  C11  11 d         -11.118 207.748 111.290  0.00  0.00     0.051 A 
ATOM      7  N3   11 d          -9.893 208.281 111.022  0.00  0.00    -0.250 NA
ATOM      8  C12  11 d          -9.205 208.507 112.163  0.00  0.00     0.072 A 
ATOM      9  S1   11 d         -10.002 207.993 113.319  0.00  0.00    -0.071 SA
ATOM     10  C13  11 d          -7.802 209.015 112.240  0.00  0.00     0.078 C 
ATOM     11  C14  11 d         -11.988 207.236 110.182  0.00  0.00     0.072 C 
ATOM     12  C15  11 d         -13.718 206.900 112.921  0.00  0.00     0.053 A 
ATOM     13  C16  11 d         -14.720 206.300 113.689  0.00  0.00     0.139 A 
ATOM     14  N4   11 d         -14.418 205.754 114.897  0.00  0.00    -0.075 NA
ATOM     15  H5   11 d         -11.843 205.118 116.811  0.00  0.00     0.184 HD
ENDROOT
BRANCH   1  16
ATOM     16  C5   11 d         -13.725 204.830 117.588  0.00  0.00     0.049 A 
ATOM     17  C4   11 d         -14.452 203.644 117.372  0.00  0.00     0.031 A 
ATOM     18  C3   11 d         -15.373 203.184 118.324  0.00  0.00     0.018 A 
ATOM     19  C2   11 d         -15.571 203.884 119.533  0.00  0.00     0.048 A 
ATOM     20  C7   11 d         -14.853 205.081 119.742  0.00  0.00     0.018 A 
ATOM     21  C6   11 d         -13.927 205.537 118.792  0.00  0.00     0.031 A 
BRANCH  19  22
ATOM     22  C1   11 d         -16.632 203.446 120.517  0.00  0.00     0.417 C 
ATOM     23  F1   11 d         -16.806 202.065 120.492  0.00  0.00    -0.166 F 
ATOM     24  F2   11 d         -17.837 204.053 120.178  0.00  0.00    -0.166 F 
ATOM     25  F3   11 d         -16.303 203.807 121.821  0.00  0.00    -0.166 F 
ENDBRANCH  19  22
ENDBRANCH   1  16
TORSDOF 2
ENDMDL
MODEL 6
REMARK VINA RESULT:      -8.5      6.639      9.245
REMARK  2 active torsions:
REMARK  status: ('A' for Active; 'I' for Inactive)
REMARK    1  A    between atoms: C1_1  and  C2_2 
REMARK    2  A    between atoms: C5_5  and  N1_8 
REMARK       I    between atoms: N1_8  and  C8_9 
ROOT
ATOM      1  N1   11 d         -13.348 206.591 116.695  0.00  0.00    -0.188 N 
ATOM      2  C8   11 d         -14.003 205.506 117.253  0.00  0.00     0.727 A 
ATOM      3  N2   11 d         -14.124 205.443 118.609  0.00  0.00    -0.061 NA
ATOM      4  C9   11 d         -14.774 204.419 119.242  0.00  0.00     0.096 A 
ATOM      5  C10  11 d         -14.848 204.426 120.729  0.00  0.00     0.060 A 
ATOM      6  C11  11 d         -15.762 203.790 121.584  0.00  0.00     0.051 A 
ATOM      7  N3   11 d         -15.499 204.102 122.884  0.00  0.00    -0.250 NA
ATOM      8  C12  11 d         -14.389 204.867 122.981  0.00  0.00     0.072 A 
ATOM      9  S1   11 d         -13.896 205.184 121.605  0.00  0.00    -0.071 SA
ATOM     10  C13  11 d         -13.852 205.453 124.247  0.00  0.00     0.078 C 
ATOM     11  C14  11 d         -17.043 203.111 121.206  0.00  0.00     0.072 C 
ATOM     12  C15  11 d         -15.317 203.385 118.458  0.00  0.00     0.053 A 
ATOM     13  C16  11 d         -15.205 203.465 117.066  0.00  0.00     0.139 A 
ATOM     14  N4   11 d         -14.562 204.519 116.494  0.00  0.00    -0.075 NA
ATOM     15  H5   11 d         -13.156 207.361 117.297  0.00  0.00     0.184 HD
ENDROOT
BRANCH   1  16
ATOM     16  C5   11 d         -12.949 206.687 115.366  0.00  0.00     0.049 A 
ATOM     17  C4   11 d         -13.774 207.386 114.465  0.00  0.00     0.031 A 
ATOM     18  C3   11 d         -13.411 207.522 113.117  0.00  0.00     0.018 A 
ATOM     19  C2   11 d         -12.196 206.987 112.641  0.00  0.00     0.048 A 
ATOM     20  C7   11 d         -11.377 206.273 113.540  0.00  0.00     0.018 A 
ATOM     21  C6   11 d         -11.738 206.142 114.890  0.00  0.00     0.031 A 
BRANCH  19  22
ATOM     22  C1   11 d         -11.847 207.047 111.170  0.00  0.00     0.417 C 
ATOM     23  F1   11 d         -12.953 207.399 110.402  0.00  0.00    -0.166 F 
ATOM     24  F2   11 d         -11.402 205.794 110.762  0.00  0.00    -0.166 F 
ATOM     25  F3   11 d         -10.844 207.980 110.918  0.00  0.00    -0.166 F 
ENDBRANCH  19  22
ENDBRANCH   1  16
TORSDOF 2
ENDMDL
MODEL 7
REMARK VINA RESULT:      -8.2      3.294      4.484
REMARK  2 active torsions:
REMARK  status: ('A' for Active; 'I' for Inactive)
REMARK    1  A    between atoms: C1_1  and  C2_2 
REMARK    2  A    between atoms: C5_5  and  N1_8 
REMARK       I    between atoms: N1_8  and  C8_9 
ROOT
ATOM      1  N1   11 d         -12.315 206.439 115.695  0.00  0.00    -0.188 N 
ATOM      2  C8   11 d         -11.210 207.273 115.683  0.00  0.00     0.727 A 
ATOM      3  N2   11 d         -10.440 207.354 116.805  0.00  0.00    -0.061 NA
ATOM      4  C9   11 d          -9.320 208.135 116.874  0.00  0.00     0.096 A 
ATOM      5  C10  11 d          -8.545 208.170 118.144  0.00  0.00     0.060 A 
ATOM      6  C11  11 d          -7.200 208.509 118.366  0.00  0.00     0.051 A 
ATOM      7  N3   11 d          -6.880 208.359 119.682  0.00  0.00    -0.250 NA
ATOM      8  C12  11 d          -7.965 208.005 120.405  0.00  0.00     0.072 A 
ATOM      9  S1   11 d          -9.122 207.807 119.479  0.00  0.00    -0.071 SA
ATOM     10  C13  11 d          -7.963 207.685 121.865  0.00  0.00     0.078 C 
ATOM     11  C14  11 d          -6.131 208.713 117.337  0.00  0.00     0.072 C 
ATOM     12  C15  11 d          -8.966 208.898 115.745  0.00  0.00     0.053 A 
ATOM     13  C16  11 d          -9.749 208.796 114.591  0.00  0.00     0.139 A 
ATOM     14  N4   11 d         -10.843 207.988 114.579  0.00  0.00    -0.075 NA
ATOM     15  H5   11 d         -12.392 205.803 116.457  0.00  0.00     0.184 HD
ENDROOT
BRANCH   1  16
ATOM     16  C5   11 d         -13.312 206.420 114.725  0.00  0.00     0.049 A 
ATOM     17  C4   11 d         -13.023 205.844 113.474  0.00  0.00     0.031 A 
ATOM     18  C3   11 d         -13.998 205.788 112.467  0.00  0.00     0.018 A 
ATOM     19  C2   11 d         -15.299 206.282 112.695  0.00  0.00     0.048 A 
ATOM     20  C7   11 d         -15.584 206.873 113.944  0.00  0.00     0.018 A 
ATOM     21  C6   11 d         -14.610 206.924 114.953  0.00  0.00     0.031 A 
BRANCH  19  22
ATOM     22  C1   11 d         -16.322 206.313 111.582  0.00  0.00     0.417 C 
ATOM     23  F1   11 d         -15.727 206.100 110.342  0.00  0.00    -0.166 F 
ATOM     24  F2   11 d         -16.939 207.559 111.572  0.00  0.00    -0.166 F 
ATOM     25  F3   11 d         -17.298 205.334 111.755  0.00  0.00    -0.166 F 
ENDBRANCH  19  22
ENDBRANCH   1  16
TORSDOF 2
ENDMDL
MODEL 8
REMARK VINA RESULT:      -8.0      4.632      5.748
REMARK  2 active torsions:
REMARK  status: ('A' for Active; 'I' for Inactive)
REMARK    1  A    between atoms: C1_1  and  C2_2 
REMARK    2  A    between atoms: C5_5  and  N1_8 
REMARK       I    between atoms: N1_8  and  C8_9 
ROOT
ATOM      1  N1   11 d         -10.887 208.892 116.410  0.00  0.00    -0.188 N 
ATOM      2  C8   11 d         -10.509 208.139 117.509  0.00  0.00     0.727 A 
ATOM      3  N2   11 d          -9.695 208.708 118.442  0.00  0.00    -0.061 NA
ATOM      4  C9   11 d          -9.291 208.046 119.569  0.00  0.00     0.096 A 
ATOM      5  C10  11 d          -8.392 208.743 120.529  0.00  0.00     0.060 A 
ATOM      6  C11  11 d          -8.177 208.499 121.895  0.00  0.00     0.051 A 
ATOM      7  N3   11 d          -7.304 209.409 122.411  0.00  0.00    -0.250 NA
ATOM      8  C12  11 d          -6.835 210.230 121.446  0.00  0.00     0.072 A 
ATOM      9  S1   11 d          -7.525 209.908 120.159  0.00  0.00    -0.071 SA
ATOM     10  C13  11 d          -5.918 211.389 121.668  0.00  0.00     0.078 C 
ATOM     11  C14  11 d          -8.972 207.605 122.797  0.00  0.00     0.072 C 
ATOM     12  C15  11 d          -9.721 206.718 119.754  0.00  0.00     0.053 A 
ATOM     13  C16  11 d         -10.571 206.147 118.802  0.00  0.00     0.139 A 
ATOM     14  N4   11 d         -10.952 206.863 117.711  0.00  0.00    -0.075 NA
ATOM     15  H5   11 d         -10.694 209.868 116.443  0.00  0.00     0.184 HD
ENDROOT
BRANCH   1  16
ATOM     16  C5   11 d         -11.517 208.389 115.276  0.00  0.00     0.049 A 
ATOM     17  C4   11 d         -10.723 207.834 114.255  0.00  0.00     0.031 A 
ATOM     18  C3   11 d         -11.311 207.302 113.098  0.00  0.00     0.018 A 
ATOM     19  C2   11 d         -12.713 207.285 112.944  0.00  0.00     0.048 A 
ATOM     20  C7   11 d         -13.507 207.855 113.960  0.00  0.00     0.018 A 
ATOM     21  C6   11 d         -12.920 208.382 115.121  0.00  0.00     0.031 A 
BRANCH  19  22
ATOM     22  C1   11 d         -13.344 206.802 111.658  0.00  0.00     0.417 C 
ATOM     23  F1   11 d         -13.687 205.455 111.736  0.00  0.00    -0.166 F 
ATOM     24  F2   11 d         -12.435 206.971 110.619  0.00  0.00    -0.166 F 
ATOM     25  F3   11 d         -14.502 207.515 111.356  0.00  0.00    -0.166 F 
ENDBRANCH  19  22
ENDBRANCH   1  16
TORSDOF 2
ENDMDL
MODEL 9
REMARK VINA RESULT:      -8.0      3.478      4.940
REMARK  2 active torsions:
REMARK  status: ('A' for Active; 'I' for Inactive)
REMARK    1  A    between atoms: C1_1  and  C2_2 
REMARK    2  A    between atoms: C5_5  and  N1_8 
REMARK       I    between atoms: N1_8  and  C8_9 
ROOT
ATOM      1  N1   11 d          -8.647 208.818 115.621  0.00  0.00    -0.188 N 
ATOM      2  C8   11 d          -7.266 208.903 115.676  0.00  0.00     0.727 A 
ATOM      3  N2   11 d          -6.692 209.505 116.756  0.00  0.00    -0.061 NA
ATOM      4  C9   11 d          -5.337 209.613 116.903  0.00  0.00     0.096 A 
ATOM      5  C10  11 d          -4.797 210.296 118.111  0.00  0.00     0.060 A 
ATOM      6  C11  11 d          -3.536 210.183 118.717  0.00  0.00     0.051 A 
ATOM      7  N3   11 d          -3.474 210.952 119.841  0.00  0.00    -0.250 NA
ATOM      8  C12  11 d          -4.612 211.662 120.002  0.00  0.00     0.072 A 
ATOM      9  S1   11 d          -5.583 211.272 118.934  0.00  0.00    -0.071 SA
ATOM     10  C13  11 d          -4.919 212.551 121.164  0.00  0.00     0.078 C 
ATOM     11  C14  11 d          -2.474 209.166 118.427  0.00  0.00     0.072 C 
ATOM     12  C15  11 d          -4.510 209.098 115.887  0.00  0.00     0.053 A 
ATOM     13  C16  11 d          -5.106 208.465 114.791  0.00  0.00     0.139 A 
ATOM     14  N4   11 d          -6.460 208.374 114.710  0.00  0.00    -0.075 NA
ATOM     15  H5   11 d          -9.147 209.038 116.453  0.00  0.00     0.184 HD
ENDROOT
BRANCH   1  16
ATOM     16  C5   11 d          -9.380 208.443 114.499  0.00  0.00     0.049 A 
ATOM     17  C4   11 d         -10.573 207.720 114.685  0.00  0.00     0.031 A 
ATOM     18  C3   11 d         -11.355 207.330 113.587  0.00  0.00     0.018 A 
ATOM     19  C2   11 d         -10.978 207.680 112.274  0.00  0.00     0.048 A 
ATOM     20  C7   11 d          -9.775 208.392 112.087  0.00  0.00     0.018 A 
ATOM     21  C6   11 d          -8.996 208.787 113.185  0.00  0.00     0.031 A 
BRANCH  19  22
ATOM     22  C1   11 d         -11.765 207.179 111.084  0.00  0.00     0.417 C 
ATOM     23  F1   11 d         -13.125 207.438 111.231  0.00  0.00    -0.166 F 
ATOM     24  F2   11 d         -11.583 205.805 110.970  0.00  0.00    -0.166 F 
ATOM     25  F3   11 d         -11.346 207.783 109.901  0.00  0.00    -0.166 F 
ENDBRANCH  19  22
ENDBRANCH   1  16
TORSDOF 2
ENDMDL
MODEL 10
REMARK VINA RESULT:      -8.0      6.687      9.467
REMARK  2 active torsions:
REMARK  status: ('A' for Active; 'I' for Inactive)
REMARK    1  A    between atoms: C1_1  and  C2_2 
REMARK    2  A    between atoms: C5_5  and  N1_8 
REMARK       I    between atoms: N1_8  and  C8_9 
ROOT
ATOM      1  N1   11 d         -12.524 207.761 117.042  0.00  0.00    -0.188 N 
ATOM      2  C8   11 d         -13.184 206.578 117.330  0.00  0.00     0.727 A 
ATOM      3  N2   11 d         -13.694 206.402 118.582  0.00  0.00    -0.061 NA
ATOM      4  C9   11 d         -14.379 205.276 118.945  0.00  0.00     0.096 A 
ATOM      5  C10  11 d         -14.892 205.165 120.338  0.00  0.00     0.060 A 
ATOM      6  C11  11 d         -15.938 204.380 120.849  0.00  0.00     0.051 A 
ATOM      7  N3   11 d         -16.110 204.619 122.179  0.00  0.00    -0.250 NA
ATOM      8  C12  11 d         -15.176 205.479 122.639  0.00  0.00     0.072 A 
ATOM      9  S1   11 d         -14.337 205.944 121.492  0.00  0.00    -0.071 SA
ATOM     10  C13  11 d         -15.109 206.019 124.032  0.00  0.00     0.078 C 
ATOM     11  C14  11 d         -16.961 203.609 120.072  0.00  0.00     0.072 C 
ATOM     12  C15  11 d         -14.542 204.255 117.990  0.00  0.00     0.053 A 
ATOM     13  C16  11 d         -14.032 204.449 116.703  0.00  0.00     0.139 A 
ATOM     14  N4   11 d         -13.375 205.600 116.397  0.00  0.00    -0.075 NA
ATOM     15  H5   11 d         -12.609 208.498 117.705  0.00  0.00     0.184 HD
ENDROOT
BRANCH   1  16
ATOM     16  C5   11 d         -11.762 207.994 115.902  0.00  0.00     0.049 A 
ATOM     17  C4   11 d         -10.486 208.569 116.050  0.00  0.00     0.031 A 
ATOM     18  C3   11 d          -9.674 208.812 114.933  0.00  0.00     0.018 A 
ATOM     19  C2   11 d         -10.106 208.458 113.637  0.00  0.00     0.048 A 
ATOM     20  C7   11 d         -11.390 207.897 113.487  0.00  0.00     0.018 A 
ATOM     21  C6   11 d         -12.201 207.648 114.606  0.00  0.00     0.031 A 
BRANCH  19  22
ATOM     22  C1   11 d          -9.275 208.807 112.423  0.00  0.00     0.417 C 
ATOM     23  F1   11 d          -8.092 208.074 112.391  0.00  0.00    -0.166 F 
ATOM     24  F2   11 d          -8.960 210.161 112.467  0.00  0.00    -0.166 F 
ATOM     25  F3   11 d          -9.963 208.549 111.239  0.00  0.00    -0.166 F 
ENDBRANCH  19  22
ENDBRANCH   1  16
TORSDOF 2
ENDMDL
