MODEL 1
REMARK VINA RESULT:      -7.8      0.000      0.000
REMARK  0 active torsions:
REMARK  status: ('A' for Active; 'I' for Inactive)
ROOT
ATOM      1  C1   11 d           7.801  45.906  52.114  0.00  0.00     0.136 A 
ATOM      2  N1   11 d           6.573  45.660  52.658  0.00  0.00    -0.341 N 
ATOM      3  C2   11 d           6.018  44.651  51.960  0.00  0.00     0.062 A 
ATOM      4  C3   11 d           6.904  44.285  50.972  0.00  0.00     0.086 A 
ATOM      5  C4   11 d           6.607  43.269  50.059  0.00  0.00     0.040 A 
ATOM      6  C5   11 d           5.351  42.625  50.156  0.00  0.00    -0.060 A 
ATOM      7  C6   11 d           4.464  42.972  51.209  0.00  0.00     0.009 A 
ATOM      8  C7   11 d           4.784  44.004  52.113  0.00  0.00     0.032 A 
ATOM      9  C8   11 d           5.023  41.473  49.249  0.00  0.00     0.048 C 
ATOM     10  N2   11 d           8.007  45.052  51.078  0.00  0.00    -0.231 NA
ATOM     11  C9   11 d           8.843  46.951  52.505  0.00  0.00     0.255 C 
ATOM     12  N3   11 d           9.340  46.873  53.921  0.00  0.00    -0.064 N 
ATOM     13  C10  11 d           8.836  48.086  54.635  0.00  0.00     0.233 C 
ATOM     14  C11  11 d           7.848  48.778  53.703  0.00  0.00     0.030 C 
ATOM     15  C12  11 d           8.334  48.382  52.322  0.00  0.00     0.042 C 
ATOM     16  H1   11 d           6.098  46.151  53.457  0.00  0.00     0.167 HD
ATOM     17  H9   11 d           9.029  45.977  54.424  0.00  0.00     0.278 HD
ATOM     18  H10  11 d          10.416  46.879  53.937  0.00  0.00     0.278 HD
ENDROOT
TORSDOF 0
ENDMDL
MODEL 2
REMARK VINA RESULT:      -7.2      1.422      1.802
REMARK  0 active torsions:
REMARK  status: ('A' for Active; 'I' for Inactive)
ROOT
ATOM      1  C1   11 d           7.173  46.046  53.093  0.00  0.00     0.136 A 
ATOM      2  N1   11 d           6.285  45.764  54.092  0.00  0.00    -0.341 N 
ATOM      3  C2   11 d           5.356  44.934  53.582  0.00  0.00     0.062 A 
ATOM      4  C3   11 d           5.666  44.716  52.258  0.00  0.00     0.086 A 
ATOM      5  C4   11 d           4.871  43.907  51.441  0.00  0.00     0.040 A 
ATOM      6  C5   11 d           3.712  43.320  52.001  0.00  0.00    -0.060 A 
ATOM      7  C6   11 d           3.427  43.506  53.380  0.00  0.00     0.009 A 
ATOM      8  C7   11 d           4.241  44.332  54.181  0.00  0.00     0.032 A 
ATOM      9  C8   11 d           2.874  42.377  51.184  0.00  0.00     0.048 C 
ATOM     10  N2   11 d           6.794  45.393  51.964  0.00  0.00    -0.231 NA
ATOM     11  C9   11 d           8.406  46.945  53.118  0.00  0.00     0.255 C 
ATOM     12  N3   11 d           9.458  46.577  54.126  0.00  0.00    -0.064 N 
ATOM     13  C10  11 d           9.477  47.657  55.160  0.00  0.00     0.233 C 
ATOM     14  C11  11 d           8.280  48.561  54.888  0.00  0.00     0.030 C 
ATOM     15  C12  11 d           8.059  48.408  53.396  0.00  0.00     0.042 C 
ATOM     16  H1   11 d           6.276  46.119  55.081  0.00  0.00     0.167 HD
ATOM     17  H9   11 d           9.285  45.619  54.579  0.00  0.00     0.278 HD
ATOM     18  H10  11 d          10.423  46.526  53.654  0.00  0.00     0.278 HD
ENDROOT
TORSDOF 0
ENDMDL
MODEL 3
REMARK VINA RESULT:      -7.0      3.474      5.598
REMARK  0 active torsions:
REMARK  status: ('A' for Active; 'I' for Inactive)
ROOT
ATOM      1  C1   11 d           4.569  45.971  55.178  0.00  0.00     0.136 A 
ATOM      2  N1   11 d           4.482  45.520  53.892  0.00  0.00    -0.341 N 
ATOM      3  C2   11 d           5.702  45.647  53.337  0.00  0.00     0.062 A 
ATOM      4  C3   11 d           6.540  46.192  54.284  0.00  0.00     0.086 A 
ATOM      5  C4   11 d           7.882  46.469  54.005  0.00  0.00     0.040 A 
ATOM      6  C5   11 d           8.368  46.192  52.705  0.00  0.00    -0.060 A 
ATOM      7  C6   11 d           7.512  45.582  51.750  0.00  0.00     0.009 A 
ATOM      8  C7   11 d           6.162  45.319  52.054  0.00  0.00     0.032 A 
ATOM      9  C8   11 d           9.822  46.396  52.386  0.00  0.00     0.048 C 
ATOM     10  N2   11 d           5.841  46.378  55.421  0.00  0.00    -0.231 NA
ATOM     11  C9   11 d           3.482  46.067  56.247  0.00  0.00     0.255 C 
ATOM     12  N3   11 d           2.809  44.773  56.606  0.00  0.00    -0.064 N 
ATOM     13  C10  11 d           1.398  44.858  56.120  0.00  0.00     0.233 C 
ATOM     14  C11  11 d           1.291  46.118  55.270  0.00  0.00     0.030 C 
ATOM     15  C12  11 d           2.357  47.025  55.853  0.00  0.00     0.042 C 
ATOM     16  H1   11 d           3.640  45.154  53.380  0.00  0.00     0.167 HD
ATOM     17  H9   11 d           3.304  43.915  56.192  0.00  0.00     0.278 HD
ATOM     18  H10  11 d           2.805  44.641  57.675  0.00  0.00     0.278 HD
ENDROOT
TORSDOF 0
ENDMDL
MODEL 4
REMARK VINA RESULT:      -6.8      2.500      6.039
REMARK  0 active torsions:
REMARK  status: ('A' for Active; 'I' for Inactive)
ROOT
ATOM      1  C1   11 d           4.654  44.702  53.486  0.00  0.00     0.136 A 
ATOM      2  N1   11 d           5.438  44.869  52.380  0.00  0.00    -0.341 N 
ATOM      3  C2   11 d           6.569  45.481  52.777  0.00  0.00     0.062 A 
ATOM      4  C3   11 d           6.473  45.705  54.132  0.00  0.00     0.086 A 
ATOM      5  C4   11 d           7.490  46.350  54.844  0.00  0.00     0.040 A 
ATOM      6  C5   11 d           8.631  46.792  54.132  0.00  0.00    -0.060 A 
ATOM      7  C6   11 d           8.746  46.512  52.745  0.00  0.00     0.009 A 
ATOM      8  C7   11 d           7.704  45.866  52.049  0.00  0.00     0.032 A 
ATOM      9  C8   11 d           9.783  47.415  54.869  0.00  0.00     0.048 C 
ATOM     10  N2   11 d           5.297  45.212  54.567  0.00  0.00    -0.231 NA
ATOM     11  C9   11 d           3.264  44.082  53.603  0.00  0.00     0.255 C 
ATOM     12  N3   11 d           3.149  42.655  53.145  0.00  0.00    -0.064 N 
ATOM     13  C10  11 d           2.310  42.654  51.908  0.00  0.00     0.233 C 
ATOM     14  C11  11 d           2.109  44.109  51.500  0.00  0.00     0.030 C 
ATOM     15  C12  11 d           2.208  44.858  52.815  0.00  0.00     0.042 C 
ATOM     16  H1   11 d           5.232  44.605  51.383  0.00  0.00     0.167 HD
ATOM     17  H9   11 d           4.102  42.198  52.960  0.00  0.00     0.278 HD
ATOM     18  H10  11 d           2.662  42.062  53.900  0.00  0.00     0.278 HD
ENDROOT
TORSDOF 0
ENDMDL
MODEL 5
REMARK VINA RESULT:      -6.7      3.027      4.880
REMARK  0 active torsions:
REMARK  status: ('A' for Active; 'I' for Inactive)
ROOT
ATOM      1  C1   11 d           3.845  45.620  53.225  0.00  0.00     0.136 A 
ATOM      2  N1   11 d           4.957  46.325  53.589  0.00  0.00    -0.341 N 
ATOM      3  C2   11 d           5.961  45.940  52.779  0.00  0.00     0.062 A 
ATOM      4  C3   11 d           5.467  44.982  51.922  0.00  0.00     0.086 A 
ATOM      5  C4   11 d           6.278  44.364  50.965  0.00  0.00     0.040 A 
ATOM      6  C5   11 d           7.643  44.733  50.904  0.00  0.00    -0.060 A 
ATOM      7  C6   11 d           8.133  45.759  51.755  0.00  0.00     0.009 A 
ATOM      8  C7   11 d           7.296  46.361  52.716  0.00  0.00     0.032 A 
ATOM      9  C8   11 d           8.531  44.156  49.837  0.00  0.00     0.048 C 
ATOM     10  N2   11 d           4.160  44.797  52.192  0.00  0.00    -0.231 NA
ATOM     11  C9   11 d           2.440  45.652  53.820  0.00  0.00     0.255 C 
ATOM     12  N3   11 d           1.757  46.990  53.801  0.00  0.00    -0.064 N 
ATOM     13  C10  11 d           1.641  47.448  55.219  0.00  0.00     0.233 C 
ATOM     14  C11  11 d           2.457  46.483  56.071  0.00  0.00     0.030 C 
ATOM     15  C12  11 d           2.410  45.192  55.278  0.00  0.00     0.042 C 
ATOM     16  H1   11 d           5.063  47.030  54.361  0.00  0.00     0.167 HD
ATOM     17  H9   11 d           2.278  47.717  53.207  0.00  0.00     0.278 HD
ATOM     18  H10  11 d           0.771  46.898  53.380  0.00  0.00     0.278 HD
ENDROOT
TORSDOF 0
ENDMDL
MODEL 6
REMARK VINA RESULT:      -6.6      3.766      5.042
REMARK  0 active torsions:
REMARK  status: ('A' for Active; 'I' for Inactive)
ROOT
ATOM      1  C1   11 d           6.458  47.445  54.374  0.00  0.00     0.136 A 
ATOM      2  N1   11 d           6.231  46.148  54.737  0.00  0.00    -0.341 N 
ATOM      3  C2   11 d           4.970  46.076  55.205  0.00  0.00     0.062 A 
ATOM      4  C3   11 d           4.425  47.339  55.142  0.00  0.00     0.086 A 
ATOM      5  C4   11 d           3.123  47.600  55.579  0.00  0.00     0.040 A 
ATOM      6  C5   11 d           2.368  46.529  56.115  0.00  0.00    -0.060 A 
ATOM      7  C6   11 d           2.918  45.220  56.129  0.00  0.00     0.009 A 
ATOM      8  C7   11 d           4.236  44.985  55.688  0.00  0.00     0.032 A 
ATOM      9  C8   11 d           0.937  46.745  56.520  0.00  0.00     0.048 C 
ATOM     10  N2   11 d           5.340  48.177  54.617  0.00  0.00    -0.231 NA
ATOM     11  C9   11 d           7.721  48.083  53.800  0.00  0.00     0.255 C 
ATOM     12  N3   11 d           8.215  47.496  52.508  0.00  0.00    -0.064 N 
ATOM     13  C10  11 d           9.507  46.805  52.802  0.00  0.00     0.233 C 
ATOM     14  C11  11 d           9.673  46.788  54.317  0.00  0.00     0.030 C 
ATOM     15  C12  11 d           8.903  48.014  54.767  0.00  0.00     0.042 C 
ATOM     16  H1   11 d           6.890  45.330  54.698  0.00  0.00     0.167 HD
ATOM     17  H9   11 d           7.513  46.819  52.061  0.00  0.00     0.278 HD
ATOM     18  H10  11 d           8.391  48.277  51.789  0.00  0.00     0.278 HD
ENDROOT
TORSDOF 0
ENDMDL
MODEL 7
REMARK VINA RESULT:      -6.6      1.641      5.996
REMARK  0 active torsions:
REMARK  status: ('A' for Active; 'I' for Inactive)
ROOT
ATOM      1  C1   11 d           7.024  45.756  52.070  0.00  0.00     0.136 A 
ATOM      2  N1   11 d           8.326  45.547  52.428  0.00  0.00    -0.341 N 
ATOM      3  C2   11 d           8.599  46.373  53.456  0.00  0.00     0.062 A 
ATOM      4  C3   11 d           7.462  47.103  53.722  0.00  0.00     0.086 A 
ATOM      5  C4   11 d           7.431  48.071  54.731  0.00  0.00     0.040 A 
ATOM      6  C5   11 d           8.613  48.305  55.474  0.00  0.00    -0.060 A 
ATOM      7  C6   11 d           9.765  47.511  55.228  0.00  0.00     0.009 A 
ATOM      8  C7   11 d           9.773  46.547  54.201  0.00  0.00     0.032 A 
ATOM      9  C8   11 d           8.601  49.275  56.621  0.00  0.00     0.048 C 
ATOM     10  N2   11 d           6.490  46.711  52.875  0.00  0.00    -0.231 NA
ATOM     11  C9   11 d           6.208  45.102  50.958  0.00  0.00     0.255 C 
ATOM     12  N3   11 d           6.083  43.606  51.039  0.00  0.00    -0.064 N 
ATOM     13  C10  11 d           6.852  43.036  49.891  0.00  0.00     0.233 C 
ATOM     14  C11  11 d           7.623  44.184  49.252  0.00  0.00     0.030 C 
ATOM     15  C12  11 d           6.770  45.397  49.567  0.00  0.00     0.042 C 
ATOM     16  H1   11 d           9.027  44.893  51.998  0.00  0.00     0.167 HD
ATOM     17  H9   11 d           6.436  43.207  51.971  0.00  0.00     0.278 HD
ATOM     18  H10  11 d           5.051  43.315  50.949  0.00  0.00     0.278 HD
ENDROOT
TORSDOF 0
ENDMDL
MODEL 8
REMARK VINA RESULT:      -6.5      3.200      5.801
REMARK  0 active torsions:
REMARK  status: ('A' for Active; 'I' for Inactive)
ROOT
ATOM      1  C1   11 d           4.171  46.091  53.611  0.00  0.00     0.136 A 
ATOM      2  N1   11 d           4.810  46.621  54.696  0.00  0.00    -0.341 N 
ATOM      3  C2   11 d           6.125  46.657  54.410  0.00  0.00     0.062 A 
ATOM      4  C3   11 d           6.297  46.133  53.148  0.00  0.00     0.086 A 
ATOM      5  C4   11 d           7.564  46.014  52.569  0.00  0.00     0.040 A 
ATOM      6  C5   11 d           8.688  46.430  53.322  0.00  0.00    -0.060 A 
ATOM      7  C6   11 d           8.498  47.017  54.601  0.00  0.00     0.009 A 
ATOM      8  C7   11 d           7.212  47.120  55.165  0.00  0.00     0.032 A 
ATOM      9  C8   11 d          10.059  46.397  52.708  0.00  0.00     0.048 C 
ATOM     10  N2   11 d           5.089  45.798  52.654  0.00  0.00    -0.231 NA
ATOM     11  C9   11 d           2.685  45.810  53.403  0.00  0.00     0.255 C 
ATOM     12  N3   11 d           1.776  47.001  53.521  0.00  0.00    -0.064 N 
ATOM     13  C10  11 d           0.953  46.809  54.754  0.00  0.00     0.233 C 
ATOM     14  C11  11 d           1.528  45.608  55.496  0.00  0.00     0.030 C 
ATOM     15  C12  11 d           2.142  44.774  54.388  0.00  0.00     0.042 C 
ATOM     16  H1   11 d           4.399  46.936  55.610  0.00  0.00     0.167 HD
ATOM     17  H9   11 d           2.310  47.931  53.560  0.00  0.00     0.278 HD
ATOM     18  H10  11 d           1.123  47.055  52.668  0.00  0.00     0.278 HD
ENDROOT
TORSDOF 0
ENDMDL
MODEL 9
REMARK VINA RESULT:      -6.4      3.568      6.294
REMARK  0 active torsions:
REMARK  status: ('A' for Active; 'I' for Inactive)
ROOT
ATOM      1  C1   11 d           2.556  43.531  52.932  0.00  0.00     0.136 A 
ATOM      2  N1   11 d           2.720  42.488  52.066  0.00  0.00    -0.341 N 
ATOM      3  C2   11 d           3.903  42.659  51.447  0.00  0.00     0.062 A 
ATOM      4  C3   11 d           4.463  43.822  51.926  0.00  0.00     0.086 A 
ATOM      5  C4   11 d           5.696  44.290  51.458  0.00  0.00     0.040 A 
ATOM      6  C5   11 d           6.359  43.545  50.455  0.00  0.00    -0.060 A 
ATOM      7  C6   11 d           5.801  42.320  50.004  0.00  0.00     0.009 A 
ATOM      8  C7   11 d           4.554  41.874  50.486  0.00  0.00     0.032 A 
ATOM      9  C8   11 d           7.723  43.966  49.983  0.00  0.00     0.048 C 
ATOM     10  N2   11 d           3.637  44.350  52.850  0.00  0.00    -0.231 NA
ATOM     11  C9   11 d           1.390  43.840  53.868  0.00  0.00     0.255 C 
ATOM     12  N3   11 d           1.073  42.778  54.882  0.00  0.00    -0.064 N 
ATOM     13  C10  11 d          -0.253  42.196  54.513  0.00  0.00     0.233 C 
ATOM     14  C11  11 d          -0.627  42.758  53.146  0.00  0.00     0.030 C 
ATOM     15  C12  11 d           0.086  44.097  53.113  0.00  0.00     0.042 C 
ATOM     16  H1   11 d           2.065  41.689  51.869  0.00  0.00     0.167 HD
ATOM     17  H9   11 d           1.824  42.012  54.934  0.00  0.00     0.278 HD
ATOM     18  H10  11 d           1.005  43.211  55.865  0.00  0.00     0.278 HD
ENDROOT
TORSDOF 0
ENDMDL
MODEL 10
REMARK VINA RESULT:      -6.3      2.660      6.268
REMARK  0 active torsions:
REMARK  status: ('A' for Active; 'I' for Inactive)
ROOT
ATOM      1  C1   11 d           4.612  44.926  53.236  0.00  0.00     0.136 A 
ATOM      2  N1   11 d           4.319  45.782  54.259  0.00  0.00    -0.341 N 
ATOM      3  C2   11 d           5.466  46.389  54.618  0.00  0.00     0.062 A 
ATOM      4  C3   11 d           6.472  45.892  53.820  0.00  0.00     0.086 A 
ATOM      5  C4   11 d           7.798  46.313  53.963  0.00  0.00     0.040 A 
ATOM      6  C5   11 d           8.096  47.260  54.971  0.00  0.00    -0.060 A 
ATOM      7  C6   11 d           7.046  47.806  55.755  0.00  0.00     0.009 A 
ATOM      8  C7   11 d           5.719  47.360  55.596  0.00  0.00     0.032 A 
ATOM      9  C8   11 d           9.492  47.802  55.106  0.00  0.00     0.048 C 
ATOM     10  N2   11 d           5.940  45.000  52.961  0.00  0.00    -0.231 NA
ATOM     11  C9   11 d           3.690  43.981  52.469  0.00  0.00     0.255 C 
ATOM     12  N3   11 d           2.532  44.632  51.767  0.00  0.00    -0.064 N 
ATOM     13  C10  11 d           1.287  44.195  52.470  0.00  0.00     0.233 C 
ATOM     14  C11  11 d           1.718  43.459  53.733  0.00  0.00     0.030 C 
ATOM     15  C12  11 d           3.080  42.902  53.366  0.00  0.00     0.042 C 
ATOM     16  H1   11 d           3.393  45.954  54.726  0.00  0.00     0.167 HD
ATOM     17  H9   11 d           2.604  45.702  51.748  0.00  0.00     0.278 HD
ATOM     18  H10  11 d           2.489  44.306  50.742  0.00  0.00     0.278 HD
ENDROOT
TORSDOF 0
ENDMDL
