MODEL 1
REMARK VINA RESULT:     -10.8      0.000      0.000
REMARK  3 active torsions:
REMARK  status: ('A' for Active; 'I' for Inactive)
REMARK    1  A    between atoms: C13_16  and  C14_17 
REMARK    2  A    between atoms: C15_18  and  C16_19 
REMARK    3  A    between atoms: C17_20  and  N3_21 
ROOT
ATOM      1  C1   11 d         -13.037 207.389 113.648  0.00  0.00     0.036 C 
ATOM      2  C2   11 d         -14.525 207.660 113.602  0.00  0.00     0.160 C 
ATOM      3  O1   11 d         -15.130 208.074 114.625  0.00  0.00    -0.293 OA
ATOM      4  C3   11 d         -15.346 207.397 112.366  0.00  0.00     0.092 C 
ATOM      5  C4   11 d         -14.623 206.511 111.330  0.00  0.00    -0.036 C 
ATOM      6  C5   11 d         -13.197 207.078 111.141  0.00  0.00     0.067 C 
ATOM      7  C6   11 d         -12.396 207.248 112.431  0.00  0.00     0.022 C 
ATOM      8  N1   11 d         -11.014 207.225 112.235  0.00  0.00    -0.357 N 
ATOM      9  C7   11 d         -10.138 208.027 112.938  0.00  0.00     0.059 A 
ATOM     10  C8   11 d         -10.133 208.033 114.342  0.00  0.00     0.055 A 
ATOM     11  C9   11 d          -9.224 208.845 115.043  0.00  0.00     0.031 A 
ATOM     12  C10  11 d          -8.328 209.664 114.340  0.00  0.00     0.002 A 
ATOM     13  C11  11 d          -8.326 209.657 112.937  0.00  0.00     0.002 A 
ATOM     14  C12  11 d          -9.224 208.835 112.238  0.00  0.00     0.032 A 
ATOM     15  N2   11 d         -10.950 207.163 115.017  0.00  0.00    -0.376 N 
ATOM     16  C13  11 d         -12.364 207.330 115.045  0.00  0.00     0.144 C 
ATOM     17  C22  11 d         -15.379 206.561 109.984  0.00  0.00     0.015 C 
ATOM     18  C23  11 d         -14.568 205.038 111.801  0.00  0.00     0.015 C 
ATOM     19  H5   11 d         -10.629 206.621 111.545  0.00  0.00     0.166 HD
ATOM     20  H10  11 d         -10.490 206.423 115.481  0.00  0.00     0.160 HD
ENDROOT
BRANCH  16  21
ATOM     21  C14  11 d         -13.078 206.259 115.895  0.00  0.00     0.004 C 
ATOM     22  C15  11 d         -13.323 206.234 117.230  0.00  0.00     0.012 C 
BRANCH  22  23
ATOM     23  C16  11 d         -14.112 205.157 117.901  0.00  0.00    -0.003 A 
ATOM     24  C17  11 d         -14.386 205.116 119.301  0.00  0.00     0.113 A 
ATOM     25  C18  11 d         -15.179 204.061 119.810  0.00  0.00     0.037 A 
ATOM     26  C19  11 d         -15.665 203.055 118.967  0.00  0.00     0.002 A 
ATOM     27  C20  11 d         -15.366 203.080 117.602  0.00  0.00     0.001 A 
ATOM     28  C21  11 d         -14.593 204.122 117.072  0.00  0.00     0.014 A 
BRANCH  24  29
ATOM     29  N3   11 d         -13.853 206.047 120.187  0.00  0.00    -0.115 N 
ATOM     30  O2   11 d         -13.046 205.706 120.923  0.00  0.00    -0.532 OA
ATOM     31  O3   11 d         -14.519 207.078 120.482  0.00  0.00    -0.532 OA
ENDBRANCH  24  29
ENDBRANCH  22  23
ENDBRANCH  16  21
TORSDOF 3
ENDMDL
MODEL 2
REMARK VINA RESULT:      -9.8      2.929      7.441
REMARK  3 active torsions:
REMARK  status: ('A' for Active; 'I' for Inactive)
REMARK    1  A    between atoms: C13_16  and  C14_17 
REMARK    2  A    between atoms: C15_18  and  C16_19 
REMARK    3  A    between atoms: C17_20  and  N3_21 
ROOT
ATOM      1  C1   11 d         -12.344 207.388 114.209  0.00  0.00     0.036 C 
ATOM      2  C2   11 d         -11.939 208.291 115.353  0.00  0.00     0.160 C 
ATOM      3  O1   11 d         -11.376 209.394 115.128  0.00  0.00    -0.293 OA
ATOM      4  C3   11 d         -12.136 207.891 116.794  0.00  0.00     0.092 C 
ATOM      5  C4   11 d         -12.426 206.386 116.975  0.00  0.00    -0.036 C 
ATOM      6  C5   11 d         -13.527 205.995 115.961  0.00  0.00     0.067 C 
ATOM      7  C6   11 d         -13.225 206.366 114.510  0.00  0.00     0.022 C 
ATOM      8  N1   11 d         -13.900 205.572 113.581  0.00  0.00    -0.357 N 
ATOM      9  C7   11 d         -14.414 206.063 112.398  0.00  0.00     0.059 A 
ATOM     10  C8   11 d         -13.599 206.764 111.495  0.00  0.00     0.055 A 
ATOM     11  C9   11 d         -14.133 207.246 110.287  0.00  0.00     0.031 A 
ATOM     12  C10  11 d         -15.488 207.039 109.987  0.00  0.00     0.002 A 
ATOM     13  C11  11 d         -16.304 206.334 110.885  0.00  0.00     0.002 A 
ATOM     14  C12  11 d         -15.766 205.841 112.083  0.00  0.00     0.032 A 
ATOM     15  N2   11 d         -12.259 206.882 111.756  0.00  0.00    -0.376 N 
ATOM     16  C13  11 d         -11.768 207.711 112.805  0.00  0.00     0.144 C 
ATOM     17  C22  11 d         -12.932 206.124 118.410  0.00  0.00     0.015 C 
ATOM     18  C23  11 d         -11.148 205.543 116.748  0.00  0.00     0.015 C 
ATOM     19  H5   11 d         -14.044 204.607 113.777  0.00  0.00     0.166 HD
ATOM     20  H10  11 d         -11.664 206.359 111.166  0.00  0.00     0.160 HD
ENDROOT
BRANCH  16  21
ATOM     21  C14  11 d         -10.228 207.721 112.892  0.00  0.00     0.004 C 
ATOM     22  C15  11 d          -9.331 208.541 112.285  0.00  0.00     0.012 C 
BRANCH  22  23
ATOM     23  C16  11 d          -7.861 208.482 112.539  0.00  0.00    -0.003 A 
ATOM     24  C17  11 d          -7.251 208.761 113.799  0.00  0.00     0.113 A 
ATOM     25  C18  11 d          -5.847 208.633 113.921  0.00  0.00     0.037 A 
ATOM     26  C19  11 d          -5.060 208.268 112.822  0.00  0.00     0.002 A 
ATOM     27  C20  11 d          -5.657 208.028 111.582  0.00  0.00     0.001 A 
ATOM     28  C21  11 d          -7.047 208.137 111.439  0.00  0.00     0.014 A 
BRANCH  24  29
ATOM     29  N3   11 d          -7.984 209.209 114.893  0.00  0.00    -0.115 N 
ATOM     30  O2   11 d          -8.229 210.324 114.972  0.00  0.00    -0.532 OA
ATOM     31  O3   11 d          -7.993 208.528 115.957  0.00  0.00    -0.532 OA
ENDBRANCH  24  29
ENDBRANCH  22  23
ENDBRANCH  16  21
TORSDOF 3
ENDMDL
MODEL 3
REMARK VINA RESULT:      -9.7      1.789      2.169
REMARK  3 active torsions:
REMARK  status: ('A' for Active; 'I' for Inactive)
REMARK    1  A    between atoms: C13_16  and  C14_17 
REMARK    2  A    between atoms: C15_18  and  C16_19 
REMARK    3  A    between atoms: C17_20  and  N3_21 
ROOT
ATOM      1  C1   11 d         -12.650 207.967 114.139  0.00  0.00     0.036 C 
ATOM      2  C2   11 d         -14.093 208.409 114.047  0.00  0.00     0.160 C 
ATOM      3  O1   11 d         -14.568 209.217 114.887  0.00  0.00    -0.293 OA
ATOM      4  C3   11 d         -15.029 207.867 112.996  0.00  0.00     0.092 C 
ATOM      5  C4   11 d         -14.494 206.598 112.299  0.00  0.00    -0.036 C 
ATOM      6  C5   11 d         -13.028 206.870 111.889  0.00  0.00     0.067 C 
ATOM      7  C6   11 d         -12.121 207.345 113.022  0.00  0.00     0.022 C 
ATOM      8  N1   11 d         -10.769 207.070 112.806  0.00  0.00    -0.357 N 
ATOM      9  C7   11 d          -9.755 207.931 113.171  0.00  0.00     0.059 A 
ATOM     10  C8   11 d          -9.646 208.400 114.490  0.00  0.00     0.055 A 
ATOM     11  C9   11 d          -8.598 209.265 114.850  0.00  0.00     0.031 A 
ATOM     12  C10  11 d          -7.664 209.674 113.885  0.00  0.00     0.002 A 
ATOM     13  C11  11 d          -7.766 209.204 112.568  0.00  0.00     0.002 A 
ATOM     14  C12  11 d          -8.804 208.329 112.214  0.00  0.00     0.032 A 
ATOM     15  N2   11 d         -10.509 207.923 115.442  0.00  0.00    -0.376 N 
ATOM     16  C13  11 d         -11.887 208.282 115.453  0.00  0.00     0.144 C 
ATOM     17  C22  11 d         -15.335 206.303 111.038  0.00  0.00     0.015 C 
ATOM     18  C23  11 d         -14.581 205.371 113.238  0.00  0.00     0.015 C 
ATOM     19  H5   11 d         -10.510 206.224 112.349  0.00  0.00     0.166 HD
ATOM     20  H10  11 d         -10.108 207.322 116.115  0.00  0.00     0.160 HD
ENDROOT
BRANCH  16  21
ATOM     21  C14  11 d         -12.661 207.660 116.635  0.00  0.00     0.004 C 
ATOM     22  C15  11 d         -13.212 206.425 116.755  0.00  0.00     0.012 C 
BRANCH  22  23
ATOM     23  C16  11 d         -13.860 205.933 118.008  0.00  0.00    -0.003 A 
ATOM     24  C17  11 d         -14.509 204.668 118.133  0.00  0.00     0.113 A 
ATOM     25  C18  11 d         -15.052 204.302 119.387  0.00  0.00     0.037 A 
ATOM     26  C19  11 d         -14.984 205.171 120.483  0.00  0.00     0.002 A 
ATOM     27  C20  11 d         -14.378 206.422 120.347  0.00  0.00     0.001 A 
ATOM     28  C21  11 d         -13.822 206.803 119.118  0.00  0.00     0.014 A 
BRANCH  24  29
ATOM     29  N3   11 d         -14.674 203.810 117.051  0.00  0.00    -0.115 N 
ATOM     30  O2   11 d         -15.597 203.934 116.386  0.00  0.00    -0.532 OA
ATOM     31  O3   11 d         -14.099 202.686 117.054  0.00  0.00    -0.532 OA
ENDBRANCH  24  29
ENDBRANCH  22  23
ENDBRANCH  16  21
TORSDOF 3
ENDMDL
MODEL 4
REMARK VINA RESULT:      -9.4      1.695      1.956
REMARK  3 active torsions:
REMARK  status: ('A' for Active; 'I' for Inactive)
REMARK    1  A    between atoms: C13_16  and  C14_17 
REMARK    2  A    between atoms: C15_18  and  C16_19 
REMARK    3  A    between atoms: C17_20  and  N3_21 
ROOT
ATOM      1  C1   11 d         -12.494 207.943 114.338  0.00  0.00     0.036 C 
ATOM      2  C2   11 d         -13.947 208.357 114.415  0.00  0.00     0.160 C 
ATOM      3  O1   11 d         -14.338 209.152 115.310  0.00  0.00    -0.293 OA
ATOM      4  C3   11 d         -14.987 207.800 113.476  0.00  0.00     0.092 C 
ATOM      5  C4   11 d         -14.511 206.543 112.716  0.00  0.00    -0.036 C 
ATOM      6  C5   11 d         -13.108 206.846 112.141  0.00  0.00     0.067 C 
ATOM      7  C6   11 d         -12.086 207.337 113.164  0.00  0.00     0.022 C 
ATOM      8  N1   11 d         -10.763 207.089 112.792  0.00  0.00    -0.357 N 
ATOM      9  C7   11 d          -9.730 207.969 113.042  0.00  0.00     0.059 A 
ATOM     10  C8   11 d          -9.479 208.435 114.342  0.00  0.00     0.055 A 
ATOM     11  C9   11 d          -8.414 209.321 114.583  0.00  0.00     0.031 A 
ATOM     12  C10  11 d          -7.606 209.752 113.520  0.00  0.00     0.002 A 
ATOM     13  C11  11 d          -7.850 209.284 112.221  0.00  0.00     0.002 A 
ATOM     14  C12  11 d          -8.904 208.389 111.984  0.00  0.00     0.032 A 
ATOM     15  N2   11 d         -10.217 207.938 115.385  0.00  0.00    -0.376 N 
ATOM     16  C13  11 d         -11.591 208.269 115.557  0.00  0.00     0.144 C 
ATOM     17  C22  11 d         -15.486 206.236 111.559  0.00  0.00     0.015 C 
ATOM     18  C23  11 d         -14.465 205.312 113.652  0.00  0.00     0.015 C 
ATOM     19  H5   11 d         -10.542 206.250 112.303  0.00  0.00     0.166 HD
ATOM     20  H10  11 d          -9.729 207.343 116.004  0.00  0.00     0.160 HD
ENDROOT
BRANCH  16  21
ATOM     21  C14  11 d         -12.211 207.628 116.817  0.00  0.00     0.004 C 
ATOM     22  C15  11 d         -12.171 206.339 117.241  0.00  0.00     0.012 C 
BRANCH  22  23
ATOM     23  C16  11 d         -12.750 205.883 118.540  0.00  0.00    -0.003 A 
ATOM     24  C17  11 d         -12.005 205.750 119.750  0.00  0.00     0.113 A 
ATOM     25  C18  11 d         -12.679 205.344 120.926  0.00  0.00     0.037 A 
ATOM     26  C19  11 d         -14.048 205.049 120.905  0.00  0.00     0.002 A 
ATOM     27  C20  11 d         -14.767 205.149 119.711  0.00  0.00     0.001 A 
ATOM     28  C21  11 d         -14.123 205.560 118.536  0.00  0.00     0.014 A 
BRANCH  24  29
ATOM     29  N3   11 d         -10.629 205.951 119.798  0.00  0.00    -0.115 N 
ATOM     30  O2   11 d          -9.967 205.125 120.236  0.00  0.00    -0.532 OA
ATOM     31  O3   11 d         -10.170 207.127 119.785  0.00  0.00    -0.532 OA
ENDBRANCH  24  29
ENDBRANCH  22  23
ENDBRANCH  16  21
TORSDOF 3
ENDMDL
MODEL 5
REMARK VINA RESULT:      -9.2      2.889      5.816
REMARK  3 active torsions:
REMARK  status: ('A' for Active; 'I' for Inactive)
REMARK    1  A    between atoms: C13_16  and  C14_17 
REMARK    2  A    between atoms: C15_18  and  C16_19 
REMARK    3  A    between atoms: C17_20  and  N3_21 
ROOT
ATOM      1  C1   11 d         -10.713 207.319 115.146  0.00  0.00     0.036 C 
ATOM      2  C2   11 d         -11.435 206.057 115.563  0.00  0.00     0.160 C 
ATOM      3  O1   11 d         -11.651 205.139 114.729  0.00  0.00    -0.293 OA
ATOM      4  C3   11 d         -11.972 205.869 116.959  0.00  0.00     0.092 C 
ATOM      5  C4   11 d         -12.041 207.182 117.768  0.00  0.00    -0.036 C 
ATOM      6  C5   11 d         -10.683 207.904 117.609  0.00  0.00     0.067 C 
ATOM      7  C6   11 d         -10.238 208.125 116.165  0.00  0.00     0.022 C 
ATOM      8  N1   11 d          -9.357 209.198 116.012  0.00  0.00    -0.357 N 
ATOM      9  C7   11 d          -8.297 209.185 115.129  0.00  0.00     0.059 A 
ATOM     10  C8   11 d          -8.495 208.904 113.767  0.00  0.00     0.055 A 
ATOM     11  C9   11 d          -7.406 208.909 112.878  0.00  0.00     0.031 A 
ATOM     12  C10  11 d          -6.114 209.181 113.352  0.00  0.00     0.002 A 
ATOM     13  C11  11 d          -5.913 209.467 114.711  0.00  0.00     0.002 A 
ATOM     14  C12  11 d          -7.002 209.476 115.595  0.00  0.00     0.032 A 
ATOM     15  N2   11 d          -9.772 208.729 113.300  0.00  0.00    -0.376 N 
ATOM     16  C13  11 d         -10.538 207.574 113.626  0.00  0.00     0.144 C 
ATOM     17  C22  11 d         -12.281 206.861 119.260  0.00  0.00     0.015 C 
ATOM     18  C23  11 d         -13.200 208.079 117.272  0.00  0.00     0.015 C 
ATOM     19  H5   11 d          -9.475 210.010 116.574  0.00  0.00     0.166 HD
ATOM     20  H10  11 d         -10.115 209.454 112.724  0.00  0.00     0.160 HD
ENDROOT
BRANCH  16  21
ATOM     21  C14  11 d         -11.931 207.570 112.960  0.00  0.00     0.004 C 
ATOM     22  C15  11 d         -12.439 206.733 112.020  0.00  0.00     0.012 C 
BRANCH  22  23
ATOM     23  C16  11 d         -13.848 206.803 111.532  0.00  0.00    -0.003 A 
ATOM     24  C17  11 d         -14.997 206.694 112.373  0.00  0.00     0.113 A 
ATOM     25  C18  11 d         -16.281 206.816 111.793  0.00  0.00     0.037 A 
ATOM     26  C19  11 d         -16.433 207.011 110.415  0.00  0.00     0.002 A 
ATOM     27  C20  11 d         -15.308 207.084 109.590  0.00  0.00     0.001 A 
ATOM     28  C21  11 d         -14.024 206.978 110.143  0.00  0.00     0.014 A 
BRANCH  24  29
ATOM     29  N3   11 d         -14.895 206.416 113.732  0.00  0.00    -0.115 N 
ATOM     30  O2   11 d         -14.929 205.324 114.075  0.00  0.00    -0.532 OA
ATOM     31  O3   11 d         -15.200 207.306 114.574  0.00  0.00    -0.532 OA
ENDBRANCH  24  29
ENDBRANCH  22  23
ENDBRANCH  16  21
TORSDOF 3
ENDMDL
MODEL 6
REMARK VINA RESULT:      -9.0      2.903      7.411
REMARK  3 active torsions:
REMARK  status: ('A' for Active; 'I' for Inactive)
REMARK    1  A    between atoms: C13_16  and  C14_17 
REMARK    2  A    between atoms: C15_18  and  C16_19 
REMARK    3  A    between atoms: C17_20  and  N3_21 
ROOT
ATOM      1  C1   11 d         -12.680 207.237 114.447  0.00  0.00     0.036 C 
ATOM      2  C2   11 d         -12.555 208.015 115.738  0.00  0.00     0.160 C 
ATOM      3  O1   11 d         -12.013 209.151 115.749  0.00  0.00    -0.293 OA
ATOM      4  C3   11 d         -13.013 207.450 117.058  0.00  0.00     0.092 C 
ATOM      5  C4   11 d         -13.261 205.927 117.016  0.00  0.00    -0.036 C 
ATOM      6  C5   11 d         -14.118 205.624 115.765  0.00  0.00     0.067 C 
ATOM      7  C6   11 d         -13.554 206.165 114.453  0.00  0.00     0.022 C 
ATOM      8  N1   11 d         -13.992 205.464 113.328  0.00  0.00    -0.357 N 
ATOM      9  C7   11 d         -14.283 206.072 112.124  0.00  0.00     0.059 A 
ATOM     10  C8   11 d         -13.341 206.892 111.484  0.00  0.00     0.055 A 
ATOM     11  C9   11 d         -13.648 207.494 110.251  0.00  0.00     0.031 A 
ATOM     12  C10  11 d         -14.905 207.287 109.663  0.00  0.00     0.002 A 
ATOM     13  C11  11 d         -15.848 206.464 110.297  0.00  0.00     0.002 A 
ATOM     14  C12  11 d         -15.535 205.852 111.521  0.00  0.00     0.032 A 
ATOM     15  N2   11 d         -12.086 207.015 112.022  0.00  0.00    -0.376 N 
ATOM     16  C13  11 d         -11.854 207.732 113.230  0.00  0.00     0.144 C 
ATOM     17  C22  11 d         -14.028 205.490 118.283  0.00  0.00     0.015 C 
ATOM     18  C23  11 d         -11.924 205.148 116.965  0.00  0.00     0.015 C 
ATOM     19  H5   11 d         -14.125 204.479 113.387  0.00  0.00     0.166 HD
ATOM     20  H10  11 d         -11.362 206.577 111.513  0.00  0.00     0.160 HD
ENDROOT
BRANCH  16  21
ATOM     21  C14  11 d         -10.364 207.773 113.628  0.00  0.00     0.004 C 
ATOM     22  C15  11 d          -9.537 208.839 113.778  0.00  0.00     0.012 C 
BRANCH  22  23
ATOM     23  C16  11 d          -8.127 208.724 114.257  0.00  0.00    -0.003 A 
ATOM     24  C17  11 d          -6.998 208.558 113.400  0.00  0.00     0.113 A 
ATOM     25  C18  11 d          -5.707 208.500 113.975  0.00  0.00     0.037 A 
ATOM     26  C19  11 d          -5.533 208.574 115.363  0.00  0.00     0.002 A 
ATOM     27  C20  11 d          -6.644 208.702 116.201  0.00  0.00     0.001 A 
ATOM     28  C21  11 d          -7.932 208.774 115.654  0.00  0.00     0.014 A 
BRANCH  24  29
ATOM     29  N3   11 d          -7.130 208.395 112.025  0.00  0.00    -0.115 N 
ATOM     30  O2   11 d          -6.228 208.025 111.425  0.00  0.00    -0.532 OA
ATOM     31  O3   11 d          -8.024 209.036 111.405  0.00  0.00    -0.532 OA
ENDBRANCH  24  29
ENDBRANCH  22  23
ENDBRANCH  16  21
TORSDOF 3
ENDMDL
MODEL 7
REMARK VINA RESULT:      -9.0      2.139      6.271
REMARK  3 active torsions:
REMARK  status: ('A' for Active; 'I' for Inactive)
REMARK    1  A    between atoms: C13_16  and  C14_17 
REMARK    2  A    between atoms: C15_18  and  C16_19 
REMARK    3  A    between atoms: C17_20  and  N3_21 
ROOT
ATOM      1  C1   11 d         -13.576 206.714 115.209  0.00  0.00     0.036 C 
ATOM      2  C2   11 d         -13.642 207.215 116.635  0.00  0.00     0.160 C 
ATOM      3  O1   11 d         -13.257 208.378 116.922  0.00  0.00    -0.293 OA
ATOM      4  C3   11 d         -14.112 206.337 117.767  0.00  0.00     0.092 C 
ATOM      5  C4   11 d         -14.153 204.838 117.401  0.00  0.00    -0.036 C 
ATOM      6  C5   11 d         -14.875 204.707 116.040  0.00  0.00     0.067 C 
ATOM      7  C6   11 d         -14.298 205.571 114.920  0.00  0.00     0.022 C 
ATOM      8  N1   11 d         -14.562 205.074 113.642  0.00  0.00    -0.357 N 
ATOM      9  C7   11 d         -14.848 205.883 112.561  0.00  0.00     0.059 A 
ATOM     10  C8   11 d         -13.980 206.922 112.188  0.00  0.00     0.055 A 
ATOM     11  C9   11 d         -14.278 207.728 111.075  0.00  0.00     0.031 A 
ATOM     12  C10  11 d         -15.453 207.505 110.342  0.00  0.00     0.002 A 
ATOM     13  C11  11 d         -16.321 206.465 110.709  0.00  0.00     0.002 A 
ATOM     14  C12  11 d         -16.015 205.652 111.811  0.00  0.00     0.032 A 
ATOM     15  N2   11 d         -12.792 207.072 112.856  0.00  0.00    -0.376 N 
ATOM     16  C13  11 d         -12.740 207.543 114.198  0.00  0.00     0.144 C 
ATOM     17  C22  11 d         -14.941 204.061 118.478  0.00  0.00     0.015 C 
ATOM     18  C23  11 d         -12.726 204.246 117.323  0.00  0.00     0.015 C 
ATOM     19  H5   11 d         -14.568 204.091 113.492  0.00  0.00     0.166 HD
ATOM     20  H10  11 d         -11.983 206.837 112.340  0.00  0.00     0.160 HD
ENDROOT
BRANCH  16  21
ATOM     21  C14  11 d         -11.299 207.671 114.735  0.00  0.00     0.004 C 
ATOM     22  C15  11 d         -10.628 208.772 115.161  0.00  0.00     0.012 C 
BRANCH  22  23
ATOM     23  C16  11 d          -9.252 208.723 115.740  0.00  0.00    -0.003 A 
ATOM     24  C17  11 d          -8.955 208.300 117.070  0.00  0.00     0.113 A 
ATOM     25  C18  11 d          -7.604 208.261 117.488  0.00  0.00     0.037 A 
ATOM     26  C19  11 d          -6.573 208.658 116.628  0.00  0.00     0.002 A 
ATOM     27  C20  11 d          -6.871 209.103 115.337  0.00  0.00     0.001 A 
ATOM     28  C21  11 d          -8.200 209.139 114.897  0.00  0.00     0.014 A 
BRANCH  24  29
ATOM     29  N3   11 d          -9.952 207.978 117.985  0.00  0.00    -0.115 N 
ATOM     30  O2   11 d         -10.116 208.666 118.885  0.00  0.00    -0.532 OA
ATOM     31  O3   11 d         -10.349 206.783 118.079  0.00  0.00    -0.532 OA
ENDBRANCH  24  29
ENDBRANCH  22  23
ENDBRANCH  16  21
TORSDOF 3
ENDMDL
MODEL 8
REMARK VINA RESULT:      -8.9      5.577      9.306
REMARK  3 active torsions:
REMARK  status: ('A' for Active; 'I' for Inactive)
REMARK    1  A    between atoms: C13_16  and  C14_17 
REMARK    2  A    between atoms: C15_18  and  C16_19 
REMARK    3  A    between atoms: C17_20  and  N3_21 
ROOT
ATOM      1  C1   11 d          -6.258 208.356 114.385  0.00  0.00     0.036 C 
ATOM      2  C2   11 d          -4.997 207.571 114.671  0.00  0.00     0.160 C 
ATOM      3  O1   11 d          -4.806 207.061 115.806  0.00  0.00    -0.293 OA
ATOM      4  C3   11 d          -3.904 207.416 113.645  0.00  0.00     0.092 C 
ATOM      5  C4   11 d          -4.027 208.406 112.468  0.00  0.00    -0.036 C 
ATOM      6  C5   11 d          -5.491 208.368 111.973  0.00  0.00     0.067 C 
ATOM      7  C6   11 d          -6.542 208.607 113.055  0.00  0.00     0.022 C 
ATOM      8  N1   11 d          -7.750 209.101 112.558  0.00  0.00    -0.357 N 
ATOM      9  C7   11 d          -8.981 208.728 113.056  0.00  0.00     0.059 A 
ATOM     10  C8   11 d          -9.273 208.848 114.424  0.00  0.00     0.055 A 
ATOM     11  C9   11 d         -10.538 208.476 114.913  0.00  0.00     0.031 A 
ATOM     12  C10  11 d         -11.509 207.970 114.035  0.00  0.00     0.002 A 
ATOM     13  C11  11 d         -11.223 207.854 112.667  0.00  0.00     0.002 A 
ATOM     14  C12  11 d          -9.965 208.239 112.178  0.00  0.00     0.032 A 
ATOM     15  N2   11 d          -8.350 209.427 115.256  0.00  0.00    -0.376 N 
ATOM     16  C13  11 d          -7.133 208.772 115.597  0.00  0.00     0.144 C 
ATOM     17  C22  11 d          -3.085 207.973 111.323  0.00  0.00     0.015 C 
ATOM     18  C23  11 d          -3.634 209.838 112.904  0.00  0.00     0.015 C 
ATOM     19  H5   11 d          -7.739 209.740 111.795  0.00  0.00     0.166 HD
ATOM     20  H10  11 d          -8.592 210.320 115.601  0.00  0.00     0.160 HD
ENDROOT
BRANCH  16  21
ATOM     21  C14  11 d          -6.264 209.591 116.576  0.00  0.00     0.004 C 
ATOM     22  C15  11 d          -6.098 209.445 117.915  0.00  0.00     0.012 C 
BRANCH  22  23
ATOM     23  C16  11 d          -5.146 210.269 118.719  0.00  0.00    -0.003 A 
ATOM     24  C17  11 d          -3.738 210.045 118.774  0.00  0.00     0.113 A 
ATOM     25  C18  11 d          -2.937 210.921 119.544  0.00  0.00     0.037 A 
ATOM     26  C19  11 d          -3.512 211.974 120.267  0.00  0.00     0.002 A 
ATOM     27  C20  11 d          -4.895 212.169 120.237  0.00  0.00     0.001 A 
ATOM     28  C21  11 d          -5.708 211.322 119.472  0.00  0.00     0.014 A 
BRANCH  24  29
ATOM     29  N3   11 d          -3.135 208.963 118.141  0.00  0.00    -0.115 N 
ATOM     30  O2   11 d          -2.788 208.077 118.777  0.00  0.00    -0.532 OA
ATOM     31  O3   11 d          -2.590 209.126 117.013  0.00  0.00    -0.532 OA
ENDBRANCH  24  29
ENDBRANCH  22  23
ENDBRANCH  16  21
TORSDOF 3
ENDMDL
MODEL 9
REMARK VINA RESULT:      -8.7      5.423      9.191
REMARK  3 active torsions:
REMARK  status: ('A' for Active; 'I' for Inactive)
REMARK    1  A    between atoms: C13_16  and  C14_17 
REMARK    2  A    between atoms: C15_18  and  C16_19 
REMARK    3  A    between atoms: C17_20  and  N3_21 
ROOT
ATOM      1  C1   11 d          -6.126 208.287 114.569  0.00  0.00     0.036 C 
ATOM      2  C2   11 d          -4.867 207.461 114.712  0.00  0.00     0.160 C 
ATOM      3  O1   11 d          -4.585 206.912 115.809  0.00  0.00    -0.293 OA
ATOM      4  C3   11 d          -3.879 207.311 113.583  0.00  0.00     0.092 C 
ATOM      5  C4   11 d          -4.083 208.341 112.452  0.00  0.00    -0.036 C 
ATOM      6  C5   11 d          -5.588 208.355 112.096  0.00  0.00     0.067 C 
ATOM      7  C6   11 d          -6.526 208.586 113.279  0.00  0.00     0.022 C 
ATOM      8  N1   11 d          -7.760 209.127 112.913  0.00  0.00    -0.357 N 
ATOM      9  C7   11 d          -8.950 208.769 113.514  0.00  0.00     0.059 A 
ATOM     10  C8   11 d          -9.109 208.854 114.906  0.00  0.00     0.055 A 
ATOM     11  C9   11 d         -10.333 208.499 115.502  0.00  0.00     0.031 A 
ATOM     12  C10  11 d         -11.395 208.046 114.705  0.00  0.00     0.002 A 
ATOM     13  C11  11 d         -11.242 207.965 113.313  0.00  0.00     0.002 A 
ATOM     14  C12  11 d         -10.025 208.333 112.719  0.00  0.00     0.032 A 
ATOM     15  N2   11 d          -8.097 209.382 115.664  0.00  0.00    -0.376 N 
ATOM     16  C13  11 d          -6.871 208.687 115.870  0.00  0.00     0.144 C 
ATOM     17  C22  11 d          -3.265 207.920 111.212  0.00  0.00     0.015 C 
ATOM     18  C23  11 d          -3.611 209.748 112.891  0.00  0.00     0.015 C 
ATOM     19  H5   11 d          -7.803 209.789 112.171  0.00  0.00     0.166 HD
ATOM     20  H10  11 d          -8.280 210.270 116.056  0.00  0.00     0.160 HD
ENDROOT
BRANCH  16  21
ATOM     21  C14  11 d          -5.893 209.452 116.785  0.00  0.00     0.004 C 
ATOM     22  C15  11 d          -5.554 209.218 118.079  0.00  0.00     0.012 C 
BRANCH  22  23
ATOM     23  C16  11 d          -4.516 210.002 118.812  0.00  0.00    -0.003 A 
ATOM     24  C17  11 d          -4.804 211.011 119.779  0.00  0.00     0.113 A 
ATOM     25  C18  11 d          -3.728 211.656 120.433  0.00  0.00     0.037 A 
ATOM     26  C19  11 d          -2.400 211.337 120.121  0.00  0.00     0.002 A 
ATOM     27  C20  11 d          -2.123 210.373 119.150  0.00  0.00     0.001 A 
ATOM     28  C21  11 d          -3.171 209.711 118.497  0.00  0.00     0.014 A 
BRANCH  24  29
ATOM     29  N3   11 d          -6.104 211.419 120.058  0.00  0.00    -0.115 N 
ATOM     30  O2   11 d          -6.438 212.461 119.721  0.00  0.00    -0.532 OA
ATOM     31  O3   11 d          -6.736 210.878 121.008  0.00  0.00    -0.532 OA
ENDBRANCH  24  29
ENDBRANCH  22  23
ENDBRANCH  16  21
TORSDOF 3
ENDMDL
MODEL 10
REMARK VINA RESULT:      -8.2      6.681      9.955
REMARK  3 active torsions:
REMARK  status: ('A' for Active; 'I' for Inactive)
REMARK    1  A    between atoms: C13_16  and  C14_17 
REMARK    2  A    between atoms: C15_18  and  C16_19 
REMARK    3  A    between atoms: C17_20  and  N3_21 
ROOT
ATOM      1  C1   11 d          -5.601 207.753 116.045  0.00  0.00     0.036 C 
ATOM      2  C2   11 d          -5.266 206.686 117.063  0.00  0.00     0.160 C 
ATOM      3  O1   11 d          -5.984 206.530 118.085  0.00  0.00    -0.293 OA
ATOM      4  C3   11 d          -4.043 205.814 116.932  0.00  0.00     0.092 C 
ATOM      5  C4   11 d          -3.018 206.350 115.909  0.00  0.00    -0.036 C 
ATOM      6  C5   11 d          -3.789 206.711 114.618  0.00  0.00     0.067 C 
ATOM      7  C6   11 d          -4.971 207.657 114.817  0.00  0.00     0.022 C 
ATOM      8  N1   11 d          -5.301 208.384 113.673  0.00  0.00    -0.357 N 
ATOM      9  C7   11 d          -6.601 208.680 113.313  0.00  0.00     0.059 A 
ATOM     10  C8   11 d          -7.467 209.328 114.208  0.00  0.00     0.055 A 
ATOM     11  C9   11 d          -8.784 209.635 113.822  0.00  0.00     0.031 A 
ATOM     12  C10  11 d          -9.240 209.281 112.543  0.00  0.00     0.002 A 
ATOM     13  C11  11 d          -8.376 208.639 111.644  0.00  0.00     0.002 A 
ATOM     14  C12  11 d          -7.058 208.346 112.026  0.00  0.00     0.032 A 
ATOM     15  N2   11 d          -6.984 209.748 115.420  0.00  0.00    -0.376 N 
ATOM     16  C13  11 d          -6.643 208.828 116.452  0.00  0.00     0.144 C 
ATOM     17  C22  11 d          -1.974 205.256 115.597  0.00  0.00     0.015 C 
ATOM     18  C23  11 d          -2.273 207.587 116.465  0.00  0.00     0.015 C 
ATOM     19  H5   11 d          -4.577 208.695 113.065  0.00  0.00     0.166 HD
ATOM     20  H10  11 d          -6.894 210.726 115.524  0.00  0.00     0.160 HD
ENDROOT
BRANCH  16  21
ATOM     21  C14  11 d          -6.157 209.525 117.741  0.00  0.00     0.004 C 
ATOM     22  C15  11 d          -5.089 210.339 117.935  0.00  0.00     0.012 C 
BRANCH  22  23
ATOM     23  C16  11 d          -4.795 211.014 119.235  0.00  0.00    -0.003 A 
ATOM     24  C17  11 d          -3.581 210.852 119.968  0.00  0.00     0.113 A 
ATOM     25  C18  11 d          -3.407 211.577 121.170  0.00  0.00     0.037 A 
ATOM     26  C19  11 d          -4.417 212.419 121.654  0.00  0.00     0.002 A 
ATOM     27  C20  11 d          -5.617 212.548 120.951  0.00  0.00     0.001 A 
ATOM     28  C21  11 d          -5.807 211.849 119.752  0.00  0.00     0.014 A 
BRANCH  24  29
ATOM     29  N3   11 d          -2.587 209.964 119.568  0.00  0.00    -0.115 N 
ATOM     30  O2   11 d          -2.650 208.875 119.917  0.00  0.00    -0.532 OA
ATOM     31  O3   11 d          -1.456 210.407 119.228  0.00  0.00    -0.532 OA
ENDBRANCH  24  29
ENDBRANCH  22  23
ENDBRANCH  16  21
TORSDOF 3
ENDMDL
MODEL 11
REMARK VINA RESULT:      -8.1      1.957      2.612
REMARK  3 active torsions:
REMARK  status: ('A' for Active; 'I' for Inactive)
REMARK    1  A    between atoms: C13_16  and  C14_17 
REMARK    2  A    between atoms: C15_18  and  C16_19 
REMARK    3  A    between atoms: C17_20  and  N3_21 
ROOT
ATOM      1  C1   11 d         -12.521 207.855 114.884  0.00  0.00     0.036 C 
ATOM      2  C2   11 d         -13.926 208.241 115.294  0.00  0.00     0.160 C 
ATOM      3  O1   11 d         -14.116 209.033 116.253  0.00  0.00    -0.293 OA
ATOM      4  C3   11 d         -15.142 207.658 114.619  0.00  0.00     0.092 C 
ATOM      5  C4   11 d         -14.828 206.408 113.771  0.00  0.00    -0.036 C 
ATOM      6  C5   11 d         -13.601 206.735 112.888  0.00  0.00     0.067 C 
ATOM      7  C6   11 d         -12.381 207.250 113.648  0.00  0.00     0.022 C 
ATOM      8  N1   11 d         -11.175 207.027 112.983  0.00  0.00    -0.357 N 
ATOM      9  C7   11 d         -10.130 207.928 112.988  0.00  0.00     0.059 A 
ATOM     10  C8   11 d          -9.596 208.406 114.196  0.00  0.00     0.055 A 
ATOM     11  C9   11 d          -8.522 209.314 114.185  0.00  0.00     0.031 A 
ATOM     12  C10  11 d          -7.989 209.755 112.964  0.00  0.00     0.002 A 
ATOM     13  C11  11 d          -8.516 209.275 111.756  0.00  0.00     0.002 A 
ATOM     14  C12  11 d          -9.578 208.359 111.768  0.00  0.00     0.032 A 
ATOM     15  N2   11 d         -10.065 207.900 115.380  0.00  0.00    -0.376 N 
ATOM     16  C13  11 d         -11.369 208.205 115.863  0.00  0.00     0.144 C 
ATOM     17  C22  11 d         -16.037 206.076 112.868  0.00  0.00     0.015 C 
ATOM     18  C23  11 d         -14.544 205.182 114.672  0.00  0.00     0.015 C 
ATOM     19  H5   11 d         -11.055 206.190 112.457  0.00  0.00     0.166 HD
ATOM     20  H10  11 d          -9.436 207.318 115.871  0.00  0.00     0.160 HD
ENDROOT
BRANCH  16  21
ATOM     21  C14  11 d         -11.670 207.559 117.232  0.00  0.00     0.004 C 
ATOM     22  C15  11 d         -11.190 206.409 117.770  0.00  0.00     0.012 C 
BRANCH  22  23
ATOM     23  C16  11 d         -11.510 205.954 119.157  0.00  0.00    -0.003 A 
ATOM     24  C17  11 d         -12.833 205.740 119.647  0.00  0.00     0.113 A 
ATOM     25  C18  11 d         -13.003 205.271 120.971  0.00  0.00     0.037 A 
ATOM     26  C19  11 d         -11.898 205.046 121.802  0.00  0.00     0.002 A 
ATOM     27  C20  11 d         -10.606 205.289 121.329  0.00  0.00     0.001 A 
ATOM     28  C21  11 d         -10.412 205.743 120.018  0.00  0.00     0.014 A 
BRANCH  24  29
ATOM     29  N3   11 d         -13.961 206.030 118.885  0.00  0.00    -0.115 N 
ATOM     30  O2   11 d         -14.605 206.931 119.177  0.00  0.00    -0.532 OA
ATOM     31  O3   11 d         -14.502 205.118 118.201  0.00  0.00    -0.532 OA
ENDBRANCH  24  29
ENDBRANCH  22  23
ENDBRANCH  16  21
TORSDOF 3
ENDMDL
