MODEL 1
REMARK VINA RESULT:      -9.1      0.000      0.000
REMARK  3 active torsions:
REMARK  status: ('A' for Active; 'I' for Inactive)
REMARK    1  A    between atoms: C7_7  and  O1_8 
REMARK    2  A    between atoms: O1_8  and  C8_9 
REMARK    3  A    between atoms: C8_9  and  C9_10 
ROOT
ATOM      1  C1   11 d         -10.550 208.376 115.544  0.00  0.00     0.299 A 
ATOM      2  C2   11 d          -9.638 208.684 114.514  0.00  0.00     0.051 A 
ATOM      3  C3   11 d          -9.905 208.200 113.199  0.00  0.00    -0.007 A 
ATOM      4  C4   11 d         -11.088 207.434 112.978  0.00  0.00     0.010 A 
ATOM      5  C5   11 d         -11.943 207.190 114.093  0.00  0.00     0.099 A 
ATOM      6  C6   11 d         -13.146 206.459 113.942  0.00  0.00     0.006 A 
ATOM      7  C7   11 d         -13.499 205.965 112.668  0.00  0.00     0.078 A 
ATOM      8  C11  11 d         -12.645 206.167 111.578  0.00  0.00     0.038 A 
ATOM      9  C12  11 d         -11.462 206.900 111.721  0.00  0.00     0.018 A 
ATOM     10  C13  11 d         -13.968 206.086 115.156  0.00  0.00     0.054 C 
ATOM     11  O3   11 d         -11.627 207.663 115.285  0.00  0.00    -0.273 OA
ATOM     12  C14  11 d          -8.973 208.513 112.173  0.00  0.00     0.013 A 
ATOM     13  C15  11 d          -7.830 209.277 112.444  0.00  0.00     0.001 A 
ATOM     14  C16  11 d          -7.585 209.749 113.736  0.00  0.00     0.001 A 
ATOM     15  C17  11 d          -8.481 209.455 114.768  0.00  0.00     0.018 A 
ATOM     16  O4   11 d         -10.357 208.780 116.719  0.00  0.00    -0.259 OA
ENDROOT
BRANCH   7  17
ATOM     17  O1   11 d         -14.659 205.162 112.479  0.00  0.00    -0.343 OA
BRANCH  17  18
ATOM     18  C8   11 d         -15.159 205.337 111.124  0.00  0.00     0.253 C 
BRANCH  18  19
ATOM     19  C9   11 d         -16.142 206.473 111.019  0.00  0.00     0.146 C 
ATOM     20  O2   11 d         -15.737 207.575 110.569  0.00  0.00    -0.296 OA
ATOM     21  C10  11 d         -17.484 206.432 111.687  0.00  0.00     0.093 C 
ENDBRANCH  18  19
ENDBRANCH  17  18
ENDBRANCH   7  17
TORSDOF 3
ENDMDL
MODEL 2
REMARK VINA RESULT:      -8.8      1.911      6.754
REMARK  3 active torsions:
REMARK  status: ('A' for Active; 'I' for Inactive)
REMARK    1  A    between atoms: C7_7  and  O1_8 
REMARK    2  A    between atoms: O1_8  and  C8_9 
REMARK    3  A    between atoms: C8_9  and  C9_10 
ROOT
ATOM      1  C1   11 d         -13.440 206.501 114.766  0.00  0.00     0.299 A 
ATOM      2  C2   11 d         -13.618 206.166 113.407  0.00  0.00     0.051 A 
ATOM      3  C3   11 d         -12.678 206.659 112.454  0.00  0.00    -0.007 A 
ATOM      4  C4   11 d         -11.592 207.462 112.916  0.00  0.00     0.010 A 
ATOM      5  C5   11 d         -11.508 207.732 114.313  0.00  0.00     0.099 A 
ATOM      6  C6   11 d         -10.444 208.500 114.845  0.00  0.00     0.006 A 
ATOM      7  C7   11 d          -9.455 209.005 113.974  0.00  0.00     0.078 A 
ATOM      8  C11  11 d          -9.553 208.778 112.596  0.00  0.00     0.038 A 
ATOM      9  C12  11 d         -10.597 208.009 112.070  0.00  0.00     0.018 A 
ATOM     10  C13  11 d         -10.446 208.897 116.304  0.00  0.00     0.054 C 
ATOM     11  O3   11 d         -12.421 207.248 115.137  0.00  0.00    -0.273 OA
ATOM     12  C14  11 d         -12.873 206.319 111.089  0.00  0.00     0.013 A 
ATOM     13  C15  11 d         -13.954 205.519 110.692  0.00  0.00     0.001 A 
ATOM     14  C16  11 d         -14.863 205.039 111.637  0.00  0.00     0.001 A 
ATOM     15  C17  11 d         -14.700 205.360 112.988  0.00  0.00     0.018 A 
ATOM     16  O4   11 d         -14.243 206.091 115.642  0.00  0.00    -0.259 OA
ENDROOT
BRANCH   7  17
ATOM     17  O1   11 d          -8.408 209.845 114.448  0.00  0.00    -0.343 OA
BRANCH  17  18
ATOM     18  C8   11 d          -7.124 209.322 114.003  0.00  0.00     0.253 C 
BRANCH  18  19
ATOM     19  C9   11 d          -5.969 210.168 114.471  0.00  0.00     0.146 C 
ATOM     20  O2   11 d          -6.215 211.174 115.183  0.00  0.00    -0.296 OA
ATOM     21  C10  11 d          -4.592 210.028 113.894  0.00  0.00     0.093 C 
ENDBRANCH  18  19
ENDBRANCH  17  18
ENDBRANCH   7  17
TORSDOF 3
ENDMDL
MODEL 3
REMARK VINA RESULT:      -8.6      1.838      7.170
REMARK  3 active torsions:
REMARK  status: ('A' for Active; 'I' for Inactive)
REMARK    1  A    between atoms: C7_7  and  O1_8 
REMARK    2  A    between atoms: O1_8  and  C8_9 
REMARK    3  A    between atoms: C8_9  and  C9_10 
ROOT
ATOM      1  C1   11 d         -14.247 207.004 110.157  0.00  0.00     0.299 A 
ATOM      2  C2   11 d         -15.040 206.595 111.249  0.00  0.00     0.051 A 
ATOM      3  C3   11 d         -14.439 206.532 112.542  0.00  0.00    -0.007 A 
ATOM      4  C4   11 d         -13.066 206.895 112.678  0.00  0.00     0.010 A 
ATOM      5  C5   11 d         -12.363 207.300 111.505  0.00  0.00     0.099 A 
ATOM      6  C6   11 d         -11.006 207.699 111.569  0.00  0.00     0.006 A 
ATOM      7  C7   11 d         -10.343 207.691 112.815  0.00  0.00     0.078 A 
ATOM      8  C11  11 d         -11.015 207.256 113.963  0.00  0.00     0.038 A 
ATOM      9  C12  11 d         -12.360 206.874 113.904  0.00  0.00     0.018 A 
ATOM     10  C13  11 d         -10.236 207.987 110.300  0.00  0.00     0.054 C 
ATOM     11  O3   11 d         -12.983 207.326 110.338  0.00  0.00    -0.273 OA
ATOM     12  C14  11 d         -15.248 206.113 113.631  0.00  0.00     0.013 A 
ATOM     13  C15  11 d         -16.595 205.775 113.442  0.00  0.00     0.001 A 
ATOM     14  C16  11 d         -17.171 205.846 112.171  0.00  0.00     0.001 A 
ATOM     15  C17  11 d         -16.399 206.252 111.078  0.00  0.00     0.018 A 
ATOM     16  O4   11 d         -14.731 207.073 108.998  0.00  0.00    -0.259 OA
ENDROOT
BRANCH   7  17
ATOM     17  O1   11 d          -8.960 208.010 112.921  0.00  0.00    -0.343 OA
BRANCH  17  18
ATOM     18  C8   11 d          -8.807 209.329 113.516  0.00  0.00     0.253 C 
BRANCH  18  19
ATOM     19  C9   11 d          -7.397 209.588 113.978  0.00  0.00     0.146 C 
ATOM     20  O2   11 d          -7.200 210.515 114.804  0.00  0.00    -0.296 OA
ATOM     21  C10  11 d          -6.208 208.990 113.288  0.00  0.00     0.093 C 
ENDBRANCH  18  19
ENDBRANCH  17  18
ENDBRANCH   7  17
TORSDOF 3
ENDMDL
MODEL 4
REMARK VINA RESULT:      -8.4      2.217      7.199
REMARK  3 active torsions:
REMARK  status: ('A' for Active; 'I' for Inactive)
REMARK    1  A    between atoms: C7_7  and  O1_8 
REMARK    2  A    between atoms: O1_8  and  C8_9 
REMARK    3  A    between atoms: C8_9  and  C9_10 
ROOT
ATOM      1  C1   11 d         -11.404 207.365 110.790  0.00  0.00     0.299 A 
ATOM      2  C2   11 d         -12.416 206.778 111.576  0.00  0.00     0.051 A 
ATOM      3  C3   11 d         -12.335 206.901 112.996  0.00  0.00    -0.007 A 
ATOM      4  C4   11 d         -11.239 207.620 113.559  0.00  0.00     0.010 A 
ATOM      5  C5   11 d         -10.277 208.178 112.666  0.00  0.00     0.099 A 
ATOM      6  C6   11 d          -9.178 208.927 113.153  0.00  0.00     0.006 A 
ATOM      7  C7   11 d          -9.036 209.119 114.544  0.00  0.00     0.078 A 
ATOM      8  C11  11 d          -9.955 208.540 115.428  0.00  0.00     0.038 A 
ATOM      9  C12  11 d         -11.048 207.811 114.949  0.00  0.00     0.018 A 
ATOM     10  C13  11 d          -8.092 209.388 112.208  0.00  0.00     0.054 C 
ATOM     11  O3   11 d         -10.413 208.017 111.362  0.00  0.00    -0.273 OA
ATOM     12  C14  11 d         -13.358 206.299 113.775  0.00  0.00     0.013 A 
ATOM     13  C15  11 d         -14.417 205.609 113.169  0.00  0.00     0.001 A 
ATOM     14  C16  11 d         -14.486 205.502 111.778  0.00  0.00     0.001 A 
ATOM     15  C17  11 d         -13.492 206.080 110.983  0.00  0.00     0.018 A 
ATOM     16  O4   11 d         -11.431 207.282 109.535  0.00  0.00    -0.259 OA
ENDROOT
BRANCH   7  17
ATOM     17  O1   11 d          -7.910 209.798 115.088  0.00  0.00    -0.343 OA
BRANCH  17  18
ATOM     18  C8   11 d          -7.069 208.852 115.806  0.00  0.00     0.253 C 
BRANCH  18  19
ATOM     19  C9   11 d          -5.804 208.526 115.055  0.00  0.00     0.146 C 
ATOM     20  O2   11 d          -5.270 207.404 115.242  0.00  0.00    -0.296 OA
ATOM     21  C10  11 d          -5.015 209.575 114.329  0.00  0.00     0.093 C 
ENDBRANCH  18  19
ENDBRANCH  17  18
ENDBRANCH   7  17
TORSDOF 3
ENDMDL
MODEL 5
REMARK VINA RESULT:      -8.4      2.627      5.400
REMARK  3 active torsions:
REMARK  status: ('A' for Active; 'I' for Inactive)
REMARK    1  A    between atoms: C7_7  and  O1_8 
REMARK    2  A    between atoms: O1_8  and  C8_9 
REMARK    3  A    between atoms: C8_9  and  C9_10 
ROOT
ATOM      1  C1   11 d         -13.298 206.135 111.980  0.00  0.00     0.299 A 
ATOM      2  C2   11 d         -12.138 206.914 111.789  0.00  0.00     0.051 A 
ATOM      3  C3   11 d         -11.415 207.354 112.938  0.00  0.00    -0.007 A 
ATOM      4  C4   11 d         -11.889 206.981 114.230  0.00  0.00     0.010 A 
ATOM      5  C5   11 d         -13.070 206.185 114.304  0.00  0.00     0.099 A 
ATOM      6  C6   11 d         -13.584 205.755 115.551  0.00  0.00     0.006 A 
ATOM      7  C7   11 d         -12.915 206.125 116.738  0.00  0.00     0.078 A 
ATOM      8  C11  11 d         -11.778 206.940 116.675  0.00  0.00     0.038 A 
ATOM      9  C12  11 d         -11.261 207.355 115.443  0.00  0.00     0.018 A 
ATOM     10  C13  11 d         -14.912 205.035 115.622  0.00  0.00     0.054 C 
ATOM     11  O3   11 d         -13.693 205.821 113.197  0.00  0.00    -0.273 OA
ATOM     12  C14  11 d         -10.252 208.143 112.729  0.00  0.00     0.013 A 
ATOM     13  C15  11 d          -9.826 208.475 111.436  0.00  0.00     0.001 A 
ATOM     14  C16  11 d         -10.541 208.032 110.321  0.00  0.00     0.001 A 
ATOM     15  C17  11 d         -11.693 207.257 110.493  0.00  0.00     0.018 A 
ATOM     16  O4   11 d         -13.969 205.725 110.999  0.00  0.00    -0.259 OA
ENDROOT
BRANCH   7  17
ATOM     17  O1   11 d         -13.431 205.783 118.019  0.00  0.00    -0.343 OA
BRANCH  17  18
ATOM     18  C8   11 d         -13.886 206.987 118.699  0.00  0.00     0.253 C 
BRANCH  18  19
ATOM     19  C9   11 d         -14.621 206.678 119.977  0.00  0.00     0.146 C 
ATOM     20  O2   11 d         -14.789 207.606 120.808  0.00  0.00    -0.296 OA
ATOM     21  C10  11 d         -14.899 205.272 120.419  0.00  0.00     0.093 C 
ENDBRANCH  18  19
ENDBRANCH  17  18
ENDBRANCH   7  17
TORSDOF 3
ENDMDL
MODEL 6
REMARK VINA RESULT:      -8.3      2.757      6.555
REMARK  3 active torsions:
REMARK  status: ('A' for Active; 'I' for Inactive)
REMARK    1  A    between atoms: C7_7  and  O1_8 
REMARK    2  A    between atoms: O1_8  and  C8_9 
REMARK    3  A    between atoms: C8_9  and  C9_10 
ROOT
ATOM      1  C1   11 d         -16.082 205.988 113.154  0.00  0.00     0.299 A 
ATOM      2  C2   11 d         -15.326 206.383 112.031  0.00  0.00     0.051 A 
ATOM      3  C3   11 d         -13.917 206.552 112.183  0.00  0.00    -0.007 A 
ATOM      4  C4   11 d         -13.331 206.303 113.460  0.00  0.00     0.010 A 
ATOM      5  C5   11 d         -14.193 205.901 114.522  0.00  0.00     0.099 A 
ATOM      6  C6   11 d         -13.677 205.612 115.809  0.00  0.00     0.006 A 
ATOM      7  C7   11 d         -12.289 205.729 116.039  0.00  0.00     0.078 A 
ATOM      8  C11  11 d         -11.443 206.162 115.011  0.00  0.00     0.038 A 
ATOM      9  C12  11 d         -11.949 206.436 113.735  0.00  0.00     0.018 A 
ATOM     10  C13  11 d         -14.615 205.327 116.960  0.00  0.00     0.054 C 
ATOM     11  O3   11 d         -15.490 205.773 114.310  0.00  0.00    -0.273 OA
ATOM     12  C14  11 d         -13.170 206.957 111.045  0.00  0.00     0.013 A 
ATOM     13  C15  11 d         -13.796 207.180 109.811  0.00  0.00     0.001 A 
ATOM     14  C16  11 d         -15.175 207.006 109.677  0.00  0.00     0.001 A 
ATOM     15  C17  11 d         -15.940 206.611 110.779  0.00  0.00     0.018 A 
ATOM     16  O4   11 d         -17.327 205.827 113.070  0.00  0.00    -0.259 OA
ENDROOT
BRANCH   7  17
ATOM     17  O1   11 d         -11.731 205.524 117.332  0.00  0.00    -0.343 OA
BRANCH  17  18
ATOM     18  C8   11 d         -11.492 206.810 117.970  0.00  0.00     0.253 C 
BRANCH  18  19
ATOM     19  C9   11 d         -10.177 206.848 118.704  0.00  0.00     0.146 C 
ATOM     20  O2   11 d         -10.172 206.593 119.935  0.00  0.00    -0.296 OA
ATOM     21  C10  11 d          -8.943 207.450 118.101  0.00  0.00     0.093 C 
ENDBRANCH  18  19
ENDBRANCH  17  18
ENDBRANCH   7  17
TORSDOF 3
ENDMDL
MODEL 7
REMARK VINA RESULT:      -8.1      2.405      6.201
REMARK  3 active torsions:
REMARK  status: ('A' for Active; 'I' for Inactive)
REMARK    1  A    between atoms: C7_7  and  O1_8 
REMARK    2  A    between atoms: O1_8  and  C8_9 
REMARK    3  A    between atoms: C8_9  and  C9_10 
ROOT
ATOM      1  C1   11 d         -12.952 206.339 113.212  0.00  0.00     0.299 A 
ATOM      2  C2   11 d         -12.048 206.961 112.326  0.00  0.00     0.051 A 
ATOM      3  C3   11 d         -11.018 207.785 112.870  0.00  0.00    -0.007 A 
ATOM      4  C4   11 d         -10.939 207.938 114.287  0.00  0.00     0.010 A 
ATOM      5  C5   11 d         -11.904 207.256 115.086  0.00  0.00     0.099 A 
ATOM      6  C6   11 d         -11.870 207.341 116.499  0.00  0.00     0.006 A 
ATOM      7  C7   11 d         -10.868 208.115 117.121  0.00  0.00     0.078 A 
ATOM      8  C11  11 d          -9.942 208.819 116.341  0.00  0.00     0.038 A 
ATOM      9  C12  11 d          -9.965 208.726 114.945  0.00  0.00     0.018 A 
ATOM     10  C13  11 d         -12.981 206.732 117.325  0.00  0.00     0.054 C 
ATOM     11  O3   11 d         -12.835 206.516 114.512  0.00  0.00    -0.273 OA
ATOM     12  C14  11 d         -10.118 208.410 111.966  0.00  0.00     0.013 A 
ATOM     13  C15  11 d         -10.237 208.219 110.582  0.00  0.00     0.001 A 
ATOM     14  C16  11 d         -11.247 207.405 110.065  0.00  0.00     0.001 A 
ATOM     15  C17  11 d         -12.150 206.780 110.929  0.00  0.00     0.018 A 
ATOM     16  O4   11 d         -13.877 205.605 112.779  0.00  0.00    -0.259 OA
ENDROOT
BRANCH   7  17
ATOM     17  O1   11 d         -10.836 208.293 118.533  0.00  0.00    -0.343 OA
BRANCH  17  18
ATOM     18  C8   11 d          -9.530 207.907 119.045  0.00  0.00     0.253 C 
BRANCH  18  19
ATOM     19  C9   11 d          -9.540 206.531 119.659  0.00  0.00     0.146 C 
ATOM     20  O2   11 d         -10.644 206.037 119.999  0.00  0.00    -0.296 OA
ATOM     21  C10  11 d          -8.287 205.861 120.137  0.00  0.00     0.093 C 
ENDBRANCH  18  19
ENDBRANCH  17  18
ENDBRANCH   7  17
TORSDOF 3
ENDMDL
MODEL 8
REMARK VINA RESULT:      -8.0      2.953      5.520
REMARK  3 active torsions:
REMARK  status: ('A' for Active; 'I' for Inactive)
REMARK    1  A    between atoms: C7_7  and  O1_8 
REMARK    2  A    between atoms: O1_8  and  C8_9 
REMARK    3  A    between atoms: C8_9  and  C9_10 
ROOT
ATOM      1  C1   11 d          -9.842 208.707 114.173  0.00  0.00     0.299 A 
ATOM      2  C2   11 d         -10.599 208.053 113.179  0.00  0.00     0.051 A 
ATOM      3  C3   11 d         -11.716 207.263 113.583  0.00  0.00    -0.007 A 
ATOM      4  C4   11 d         -12.028 207.176 114.972  0.00  0.00     0.010 A 
ATOM      5  C5   11 d         -11.196 207.886 115.888  0.00  0.00     0.099 A 
ATOM      6  C6   11 d         -11.461 207.866 117.279  0.00  0.00     0.006 A 
ATOM      7  C7   11 d         -12.564 207.129 117.761  0.00  0.00     0.078 A 
ATOM      8  C11  11 d         -13.360 206.398 116.872  0.00  0.00     0.038 A 
ATOM      9  C12  11 d         -13.108 206.426 115.496  0.00  0.00     0.018 A 
ATOM     10  C13  11 d         -10.491 208.503 118.249  0.00  0.00     0.054 C 
ATOM     11  O3   11 d         -10.172 208.591 115.442  0.00  0.00    -0.273 OA
ATOM     12  C14  11 d         -12.465 206.605 112.571  0.00  0.00     0.013 A 
ATOM     13  C15  11 d         -12.120 206.731 111.219  0.00  0.00     0.001 A 
ATOM     14  C16  11 d         -11.026 207.513 110.839  0.00  0.00     0.001 A 
ATOM     15  C17  11 d         -10.266 208.170 111.811  0.00  0.00     0.018 A 
ATOM     16  O4   11 d          -8.847 209.414 113.866  0.00  0.00    -0.259 OA
ENDROOT
BRANCH   7  17
ATOM     17  O1   11 d         -12.828 207.016 119.155  0.00  0.00    -0.343 OA
BRANCH  17  18
ATOM     18  C8   11 d         -13.778 205.938 119.386  0.00  0.00     0.253 C 
BRANCH  18  19
ATOM     19  C9   11 d         -14.851 206.322 120.371  0.00  0.00     0.146 C 
ATOM     20  O2   11 d         -14.760 207.433 120.950  0.00  0.00    -0.296 OA
ATOM     21  C10  11 d         -15.847 205.329 120.894  0.00  0.00     0.093 C 
ENDBRANCH  18  19
ENDBRANCH  17  18
ENDBRANCH   7  17
TORSDOF 3
ENDMDL
MODEL 9
REMARK VINA RESULT:      -7.9      2.637      6.429
REMARK  3 active torsions:
REMARK  status: ('A' for Active; 'I' for Inactive)
REMARK    1  A    between atoms: C7_7  and  O1_8 
REMARK    2  A    between atoms: O1_8  and  C8_9 
REMARK    3  A    between atoms: C8_9  and  C9_10 
ROOT
ATOM      1  C1   11 d         -12.089 207.323 111.853  0.00  0.00     0.299 A 
ATOM      2  C2   11 d         -13.434 207.134 111.472  0.00  0.00     0.051 A 
ATOM      3  C3   11 d         -14.433 207.102 112.490  0.00  0.00    -0.007 A 
ATOM      4  C4   11 d         -14.032 207.274 113.849  0.00  0.00     0.010 A 
ATOM      5  C5   11 d         -12.644 207.465 114.117  0.00  0.00     0.099 A 
ATOM      6  C6   11 d         -12.178 207.667 115.438  0.00  0.00     0.006 A 
ATOM      7  C7   11 d         -13.104 207.676 116.503  0.00  0.00     0.078 A 
ATOM      8  C11  11 d         -14.462 207.449 116.252  0.00  0.00     0.038 A 
ATOM      9  C12  11 d         -14.927 207.262 114.946  0.00  0.00     0.018 A 
ATOM     10  C13  11 d         -10.694 207.725 115.722  0.00  0.00     0.054 C 
ATOM     11  O3   11 d         -11.774 207.474 113.123  0.00  0.00    -0.273 OA
ATOM     12  C14  11 d         -15.782 206.905 112.092  0.00  0.00     0.013 A 
ATOM     13  C15  11 d         -16.121 206.749 110.741  0.00  0.00     0.001 A 
ATOM     14  C16  11 d         -15.133 206.788 109.756  0.00  0.00     0.001 A 
ATOM     15  C17  11 d         -13.795 206.977 110.115  0.00  0.00     0.018 A 
ATOM     16  O4   11 d         -11.173 207.357 110.992  0.00  0.00    -0.259 OA
ENDROOT
BRANCH   7  17
ATOM     17  O1   11 d         -12.678 207.800 117.856  0.00  0.00    -0.343 OA
BRANCH  17  18
ATOM     18  C8   11 d         -13.390 206.836 118.682  0.00  0.00     0.253 C 
BRANCH  18  19
ATOM     19  C9   11 d         -12.459 206.025 119.545  0.00  0.00     0.146 C 
ATOM     20  O2   11 d         -12.879 205.616 120.656  0.00  0.00    -0.296 OA
ATOM     21  C10  11 d         -10.988 205.934 119.266  0.00  0.00     0.093 C 
ENDBRANCH  18  19
ENDBRANCH  17  18
ENDBRANCH   7  17
TORSDOF 3
ENDMDL
MODEL 10
REMARK VINA RESULT:      -7.9      2.907      7.249
REMARK  3 active torsions:
REMARK  status: ('A' for Active; 'I' for Inactive)
REMARK    1  A    between atoms: C7_7  and  O1_8 
REMARK    2  A    between atoms: O1_8  and  C8_9 
REMARK    3  A    between atoms: C8_9  and  C9_10 
ROOT
ATOM      1  C1   11 d         -11.329 208.199 114.845  0.00  0.00     0.299 A 
ATOM      2  C2   11 d         -11.839 207.745 113.612  0.00  0.00     0.051 A 
ATOM      3  C3   11 d         -10.969 207.720 112.481  0.00  0.00    -0.007 A 
ATOM      4  C4   11 d          -9.617 208.144 112.648  0.00  0.00     0.010 A 
ATOM      5  C5   11 d          -9.208 208.576 113.944  0.00  0.00     0.099 A 
ATOM      6  C6   11 d          -7.875 208.986 114.189  0.00  0.00     0.006 A 
ATOM      7  C7   11 d          -6.941 208.967 113.131  0.00  0.00     0.078 A 
ATOM      8  C11  11 d          -7.346 208.582 111.847  0.00  0.00     0.038 A 
ATOM      9  C12  11 d          -8.659 208.164 111.605  0.00  0.00     0.018 A 
ATOM     10  C13  11 d          -7.493 209.576 115.528  0.00  0.00     0.054 C 
ATOM     11  O3   11 d         -10.072 208.581 114.943  0.00  0.00    -0.273 OA
ATOM     12  C14  11 d         -11.499 207.267 111.244  0.00  0.00     0.013 A 
ATOM     13  C15  11 d         -12.834 206.854 111.138  0.00  0.00     0.001 A 
ATOM     14  C16  11 d         -13.673 206.879 112.254  0.00  0.00     0.001 A 
ATOM     15  C17  11 d         -13.182 207.324 113.486  0.00  0.00     0.018 A 
ATOM     16  O4   11 d         -12.057 208.240 115.869  0.00  0.00    -0.259 OA
ENDROOT
BRANCH   7  17
ATOM     17  O1   11 d          -5.611 209.440 113.306  0.00  0.00    -0.343 OA
BRANCH  17  18
ATOM     18  C8   11 d          -4.705 208.309 113.446  0.00  0.00     0.253 C 
BRANCH  18  19
ATOM     19  C9   11 d          -3.486 208.441 112.572  0.00  0.00     0.146 C 
ATOM     20  O2   11 d          -2.476 209.027 113.038  0.00  0.00    -0.296 OA
ATOM     21  C10  11 d          -3.527 208.165 111.098  0.00  0.00     0.093 C 
ENDBRANCH  18  19
ENDBRANCH  17  18
ENDBRANCH   7  17
TORSDOF 3
ENDMDL
