MODEL 1
REMARK VINA RESULT:      -8.6      0.000      0.000
REMARK  3 active torsions:
REMARK  status: ('A' for Active; 'I' for Inactive)
REMARK       I    between atoms: C1_1  and  N1_2 
REMARK    1  A    between atoms: C1_1  and  C4_6 
REMARK    2  A    between atoms: C4_6  and  C5_7 
REMARK    3  A    between atoms: C4_6  and  C11_13 
ROOT
ATOM      1  C4   11 d         -12.976 206.493 113.249  0.00  0.00     0.144 C 
ENDROOT
BRANCH   1   2
ATOM      2  C1   11 d         -13.193 207.116 114.627  0.00  0.00     0.232 C 
ATOM      3  N1   11 d         -12.905 206.380 115.813  0.00  0.00    -0.360 N 
ATOM      4  C2   11 d         -11.615 206.607 116.518  0.00  0.00     0.152 C 
ATOM      5  C3   11 d         -13.873 205.391 116.363  0.00  0.00     0.152 C 
ATOM      6  O1   11 d         -13.607 208.322 114.752  0.00  0.00    -0.272 OA
ENDBRANCH   1   2
BRANCH   1   7
ATOM      7  C5   11 d         -11.838 207.156 112.459  0.00  0.00    -0.041 A 
ATOM      8  C6   11 d         -10.813 207.797 113.194  0.00  0.00     0.008 A 
ATOM      9  C7   11 d          -9.734 208.417 112.548  0.00  0.00     0.001 A 
ATOM     10  C8   11 d          -9.650 208.403 111.151  0.00  0.00     0.000 A 
ATOM     11  C9   11 d         -10.643 207.760 110.401  0.00  0.00     0.001 A 
ATOM     12  C10  11 d         -11.723 207.136 111.045  0.00  0.00     0.008 A 
ENDBRANCH   1   7
BRANCH   1  13
ATOM     13  C11  11 d         -14.317 206.487 112.525  0.00  0.00    -0.041 A 
ATOM     14  C12  11 d         -15.402 205.749 113.041  0.00  0.00     0.008 A 
ATOM     15  C13  11 d         -16.643 205.750 112.384  0.00  0.00     0.001 A 
ATOM     16  C14  11 d         -16.815 206.492 111.208  0.00  0.00     0.000 A 
ATOM     17  C15  11 d         -15.749 207.233 110.685  0.00  0.00     0.001 A 
ATOM     18  C16  11 d         -14.507 207.235 111.338  0.00  0.00     0.008 A 
ENDBRANCH   1  13
TORSDOF 3
ENDMDL
MODEL 2
REMARK VINA RESULT:      -8.5      0.745      1.678
REMARK  3 active torsions:
REMARK  status: ('A' for Active; 'I' for Inactive)
REMARK       I    between atoms: C1_1  and  N1_2 
REMARK    1  A    between atoms: C1_1  and  C4_6 
REMARK    2  A    between atoms: C4_6  and  C5_7 
REMARK    3  A    between atoms: C4_6  and  C11_13 
ROOT
ATOM      1  C4   11 d         -12.597 206.447 113.559  0.00  0.00     0.144 C 
ENDROOT
BRANCH   1   2
ATOM      2  C1   11 d         -13.048 206.949 114.929  0.00  0.00     0.232 C 
ATOM      3  N1   11 d         -12.948 206.115 116.080  0.00  0.00    -0.360 N 
ATOM      4  C2   11 d         -11.795 206.284 117.006  0.00  0.00     0.152 C 
ATOM      5  C3   11 d         -13.976 205.079 116.377  0.00  0.00     0.152 C 
ATOM      6  O1   11 d         -13.497 208.138 115.085  0.00  0.00    -0.272 OA
ENDBRANCH   1   2
BRANCH   1   7
ATOM      7  C5   11 d         -11.417 207.245 112.982  0.00  0.00    -0.041 A 
ATOM      8  C6   11 d         -11.288 207.301 111.574  0.00  0.00     0.008 A 
ATOM      9  C7   11 d         -10.246 208.016 110.967  0.00  0.00     0.001 A 
ATOM     10  C8   11 d          -9.313 208.700 111.756  0.00  0.00     0.000 A 
ATOM     11  C9   11 d          -9.429 208.674 113.151  0.00  0.00     0.001 A 
ATOM     12  C10  11 d         -10.473 207.961 113.761  0.00  0.00     0.008 A 
ENDBRANCH   1   7
BRANCH   1  13
ATOM     13  C11  11 d         -13.821 206.403 112.653  0.00  0.00    -0.041 A 
ATOM     14  C12  11 d         -14.303 207.582 112.047  0.00  0.00     0.008 A 
ATOM     15  C13  11 d         -15.424 207.544 111.202  0.00  0.00     0.001 A 
ATOM     16  C14  11 d         -16.073 206.329 110.950  0.00  0.00     0.000 A 
ATOM     17  C15  11 d         -15.605 205.148 111.540  0.00  0.00     0.001 A 
ATOM     18  C16  11 d         -14.486 205.182 112.385  0.00  0.00     0.008 A 
ENDBRANCH   1  13
TORSDOF 3
ENDMDL
MODEL 3
REMARK VINA RESULT:      -8.5      1.320      4.663
REMARK  3 active torsions:
REMARK  status: ('A' for Active; 'I' for Inactive)
REMARK       I    between atoms: C1_1  and  N1_2 
REMARK    1  A    between atoms: C1_1  and  C4_6 
REMARK    2  A    between atoms: C4_6  and  C5_7 
REMARK    3  A    between atoms: C4_6  and  C11_13 
ROOT
ATOM      1  C4   11 d         -12.800 207.307 113.862  0.00  0.00     0.144 C 
ENDROOT
BRANCH   1   2
ATOM      2  C1   11 d         -12.479 206.312 114.975  0.00  0.00     0.232 C 
ATOM      3  N1   11 d         -13.281 206.249 116.150  0.00  0.00    -0.360 N 
ATOM      4  C2   11 d         -14.332 205.201 116.263  0.00  0.00     0.152 C 
ATOM      5  C3   11 d         -13.087 207.211 117.271  0.00  0.00     0.152 C 
ATOM      6  O1   11 d         -11.504 205.488 114.867  0.00  0.00    -0.272 OA
ENDBRANCH   1   2
BRANCH   1   7
ATOM      7  C5   11 d         -13.816 206.769 112.843  0.00  0.00    -0.041 A 
ATOM      8  C6   11 d         -14.642 207.707 112.180  0.00  0.00     0.008 A 
ATOM      9  C7   11 d         -15.588 207.298 111.229  0.00  0.00     0.001 A 
ATOM     10  C8   11 d         -15.723 205.941 110.913  0.00  0.00     0.000 A 
ATOM     11  C9   11 d         -14.905 204.995 111.543  0.00  0.00     0.001 A 
ATOM     12  C10  11 d         -13.956 205.402 112.493  0.00  0.00     0.008 A 
ENDBRANCH   1   7
BRANCH   1  13
ATOM     13  C11  11 d         -11.480 207.758 113.246  0.00  0.00    -0.041 A 
ATOM     14  C12  11 d         -11.247 207.597 111.864  0.00  0.00     0.008 A 
ATOM     15  C13  11 d         -10.037 208.021 111.291  0.00  0.00     0.001 A 
ATOM     16  C14  11 d          -9.050 208.614 112.089  0.00  0.00     0.000 A 
ATOM     17  C15  11 d          -9.268 208.785 113.462  0.00  0.00     0.001 A 
ATOM     18  C16  11 d         -10.475 208.363 114.038  0.00  0.00     0.008 A 
ENDBRANCH   1  13
TORSDOF 3
ENDMDL
MODEL 4
REMARK VINA RESULT:      -8.4      1.241      1.843
REMARK  3 active torsions:
REMARK  status: ('A' for Active; 'I' for Inactive)
REMARK       I    between atoms: C1_1  and  N1_2 
REMARK    1  A    between atoms: C1_1  and  C4_6 
REMARK    2  A    between atoms: C4_6  and  C5_7 
REMARK    3  A    between atoms: C4_6  and  C11_13 
ROOT
ATOM      1  C4   11 d         -12.518 206.039 112.843  0.00  0.00     0.144 C 
ENDROOT
BRANCH   1   2
ATOM      2  C1   11 d         -12.610 206.190 114.360  0.00  0.00     0.232 C 
ATOM      3  N1   11 d         -13.573 207.059 114.949  0.00  0.00    -0.360 N 
ATOM      4  C2   11 d         -14.844 206.492 115.476  0.00  0.00     0.152 C 
ATOM      5  C3   11 d         -13.332 208.526 115.050  0.00  0.00     0.152 C 
ATOM      6  O1   11 d         -11.850 205.517 115.141  0.00  0.00    -0.272 OA
ENDBRANCH   1   2
BRANCH   1   7
ATOM      7  C5   11 d         -11.490 206.985 112.203  0.00  0.00    -0.041 A 
ATOM      8  C6   11 d         -10.561 207.622 113.060  0.00  0.00     0.008 A 
ATOM      9  C7   11 d          -9.584 208.492 112.553  0.00  0.00     0.001 A 
ATOM     10  C8   11 d          -9.509 208.738 111.177  0.00  0.00     0.000 A 
ATOM     11  C9   11 d         -10.407 208.106 110.308  0.00  0.00     0.001 A 
ATOM     12  C10  11 d         -11.383 207.233 110.811  0.00  0.00     0.008 A 
ENDBRANCH   1   7
BRANCH   1  13
ATOM     13  C11  11 d         -13.926 206.173 112.276  0.00  0.00    -0.041 A 
ATOM     14  C12  11 d         -14.368 207.406 111.751  0.00  0.00     0.008 A 
ATOM     15  C13  11 d         -15.660 207.531 111.216  0.00  0.00     0.001 A 
ATOM     16  C14  11 d         -16.523 206.428 111.195  0.00  0.00     0.000 A 
ATOM     17  C15  11 d         -16.098 205.196 111.708  0.00  0.00     0.001 A 
ATOM     18  C16  11 d         -14.808 205.066 112.244  0.00  0.00     0.008 A 
ENDBRANCH   1  13
TORSDOF 3
ENDMDL
MODEL 5
REMARK VINA RESULT:      -8.0      1.512      5.224
REMARK  3 active torsions:
REMARK  status: ('A' for Active; 'I' for Inactive)
REMARK       I    between atoms: C1_1  and  N1_2 
REMARK    1  A    between atoms: C1_1  and  C4_6 
REMARK    2  A    between atoms: C4_6  and  C5_7 
REMARK    3  A    between atoms: C4_6  and  C11_13 
ROOT
ATOM      1  C4   11 d         -13.264 206.329 112.777  0.00  0.00     0.144 C 
ENDROOT
BRANCH   1   2
ATOM      2  C1   11 d         -14.488 207.196 112.489  0.00  0.00     0.232 C 
ATOM      3  N1   11 d         -15.461 206.788 111.531  0.00  0.00    -0.360 N 
ATOM      4  C2   11 d         -16.714 206.134 111.995  0.00  0.00     0.152 C 
ATOM      5  C3   11 d         -15.249 207.007 110.073  0.00  0.00     0.152 C 
ATOM      6  O1   11 d         -14.687 208.292 113.120  0.00  0.00    -0.272 OA
ENDBRANCH   1   2
BRANCH   1   7
ATOM      7  C5   11 d         -13.162 205.897 114.248  0.00  0.00    -0.041 A 
ATOM      8  C6   11 d         -14.365 205.586 114.926  0.00  0.00     0.008 A 
ATOM      9  C7   11 d         -14.358 205.175 116.267  0.00  0.00     0.001 A 
ATOM     10  C8   11 d         -13.146 205.056 116.958  0.00  0.00     0.000 A 
ATOM     11  C9   11 d         -11.941 205.341 116.303  0.00  0.00     0.001 A 
ATOM     12  C10  11 d         -11.945 205.750 114.961  0.00  0.00     0.008 A 
ENDBRANCH   1   7
BRANCH   1  13
ATOM     13  C11  11 d         -12.037 207.069 112.259  0.00  0.00    -0.041 A 
ATOM     14  C12  11 d         -11.743 207.083 110.880  0.00  0.00     0.008 A 
ATOM     15  C13  11 d         -10.620 207.774 110.396  0.00  0.00     0.001 A 
ATOM     16  C14  11 d          -9.781 208.461 111.283  0.00  0.00     0.000 A 
ATOM     17  C15  11 d         -10.062 208.460 112.656  0.00  0.00     0.001 A 
ATOM     18  C16  11 d         -11.182 207.772 113.143  0.00  0.00     0.008 A 
ENDBRANCH   1  13
TORSDOF 3
ENDMDL
MODEL 6
REMARK VINA RESULT:      -7.9      1.986      5.002
REMARK  3 active torsions:
REMARK  status: ('A' for Active; 'I' for Inactive)
REMARK       I    between atoms: C1_1  and  N1_2 
REMARK    1  A    between atoms: C1_1  and  C4_6 
REMARK    2  A    between atoms: C4_6  and  C5_7 
REMARK    3  A    between atoms: C4_6  and  C11_13 
ROOT
ATOM      1  C4   11 d         -13.057 206.016 112.738  0.00  0.00     0.144 C 
ENDROOT
BRANCH   1   2
ATOM      2  C1   11 d         -14.186 205.606 111.795  0.00  0.00     0.232 C 
ATOM      3  N1   11 d         -15.420 206.317 111.782  0.00  0.00    -0.360 N 
ATOM      4  C2   11 d         -15.658 207.349 110.736  0.00  0.00     0.152 C 
ATOM      5  C3   11 d         -16.479 206.047 112.794  0.00  0.00     0.152 C 
ATOM      6  O1   11 d         -14.042 204.635 110.971  0.00  0.00    -0.272 OA
ENDBRANCH   1   2
BRANCH   1   7
ATOM      7  C5   11 d         -13.557 206.713 114.013  0.00  0.00    -0.041 A 
ATOM      8  C6   11 d         -13.667 205.933 115.188  0.00  0.00     0.008 A 
ATOM      9  C7   11 d         -14.106 206.496 116.395  0.00  0.00     0.001 A 
ATOM     10  C8   11 d         -14.437 207.855 116.456  0.00  0.00     0.000 A 
ATOM     11  C9   11 d         -14.320 208.651 115.311  0.00  0.00     0.001 A 
ATOM     12  C10  11 d         -13.878 208.091 114.102  0.00  0.00     0.008 A 
ENDBRANCH   1   7
BRANCH   1  13
ATOM     13  C11  11 d         -12.053 206.834 111.934  0.00  0.00    -0.041 A 
ATOM     14  C12  11 d         -10.998 207.507 112.585  0.00  0.00     0.008 A 
ATOM     15  C13  11 d         -10.064 208.252 111.847  0.00  0.00     0.001 A 
ATOM     16  C14  11 d         -10.170 208.330 110.452  0.00  0.00     0.000 A 
ATOM     17  C15  11 d         -11.210 207.664 109.791  0.00  0.00     0.001 A 
ATOM     18  C16  11 d         -12.145 206.919 110.524  0.00  0.00     0.008 A 
ENDBRANCH   1  13
TORSDOF 3
ENDMDL
MODEL 7
REMARK VINA RESULT:      -7.7      1.846      4.126
REMARK  3 active torsions:
REMARK  status: ('A' for Active; 'I' for Inactive)
REMARK       I    between atoms: C1_1  and  N1_2 
REMARK    1  A    between atoms: C1_1  and  C4_6 
REMARK    2  A    between atoms: C4_6  and  C5_7 
REMARK    3  A    between atoms: C4_6  and  C11_13 
ROOT
ATOM      1  C4   11 d         -12.795 207.656 113.347  0.00  0.00     0.144 C 
ENDROOT
BRANCH   1   2
ATOM      2  C1   11 d         -11.486 207.108 112.784  0.00  0.00     0.232 C 
ATOM      3  N1   11 d         -10.849 207.737 111.675  0.00  0.00    -0.360 N 
ATOM      4  C2   11 d          -9.718 208.674 111.917  0.00  0.00     0.152 C 
ATOM      5  C3   11 d         -11.292 207.474 110.278  0.00  0.00     0.152 C 
ATOM      6  O1   11 d         -10.911 206.092 113.311  0.00  0.00    -0.272 OA
ENDBRANCH   1   2
BRANCH   1   7
ATOM      7  C5   11 d         -12.877 207.570 114.879  0.00  0.00    -0.041 A 
ATOM      8  C6   11 d         -11.741 207.970 115.621  0.00  0.00     0.008 A 
ATOM      9  C7   11 d         -11.738 207.932 117.023  0.00  0.00     0.001 A 
ATOM     10  C8   11 d         -12.875 207.501 117.715  0.00  0.00     0.000 A 
ATOM     11  C9   11 d         -14.019 207.116 117.004  0.00  0.00     0.001 A 
ATOM     12  C10  11 d         -14.025 207.156 115.601  0.00  0.00     0.008 A 
ENDBRANCH   1   7
BRANCH   1  13
ATOM     13  C11  11 d         -13.941 206.959 112.623  0.00  0.00    -0.041 A 
ATOM     14  C12  11 d         -13.909 205.564 112.415  0.00  0.00     0.008 A 
ATOM     15  C13  11 d         -14.967 204.915 111.759  0.00  0.00     0.001 A 
ATOM     16  C14  11 d         -16.070 205.651 111.306  0.00  0.00     0.000 A 
ATOM     17  C15  11 d         -16.120 207.036 111.509  0.00  0.00     0.001 A 
ATOM     18  C16  11 d         -15.064 207.687 112.164  0.00  0.00     0.008 A 
ENDBRANCH   1  13
TORSDOF 3
ENDMDL
MODEL 8
REMARK VINA RESULT:      -7.6      1.851      4.183
REMARK  3 active torsions:
REMARK  status: ('A' for Active; 'I' for Inactive)
REMARK       I    between atoms: C1_1  and  N1_2 
REMARK    1  A    between atoms: C1_1  and  C4_6 
REMARK    2  A    between atoms: C4_6  and  C5_7 
REMARK    3  A    between atoms: C4_6  and  C11_13 
ROOT
ATOM      1  C4   11 d         -13.442 206.989 112.945  0.00  0.00     0.144 C 
ENDROOT
BRANCH   1   2
ATOM      2  C1   11 d         -14.158 206.127 111.907  0.00  0.00     0.232 C 
ATOM      3  N1   11 d         -15.285 206.629 111.195  0.00  0.00    -0.360 N 
ATOM      4  C2   11 d         -15.101 207.168 109.820  0.00  0.00     0.152 C 
ATOM      5  C3   11 d         -16.647 206.624 111.799  0.00  0.00     0.152 C 
ATOM      6  O1   11 d         -13.746 204.947 111.626  0.00  0.00    -0.272 OA
ENDBRANCH   1   2
BRANCH   1   7
ATOM      7  C5   11 d         -12.052 207.456 112.489  0.00  0.00    -0.041 A 
ATOM      8  C6   11 d         -11.742 207.349 111.112  0.00  0.00     0.008 A 
ATOM      9  C7   11 d         -10.499 207.763 110.613  0.00  0.00     0.001 A 
ATOM     10  C8   11 d          -9.539 208.301 111.479  0.00  0.00     0.000 A 
ATOM     11  C9   11 d          -9.828 208.433 112.843  0.00  0.00     0.001 A 
ATOM     12  C10  11 d         -11.073 208.022 113.344  0.00  0.00     0.008 A 
ENDBRANCH   1   7
BRANCH   1  13
ATOM     13  C11  11 d         -13.440 206.223 114.263  0.00  0.00    -0.041 A 
ATOM     14  C12  11 d         -12.226 205.947 114.925  0.00  0.00     0.008 A 
ATOM     15  C13  11 d         -12.220 205.252 116.145  0.00  0.00     0.001 A 
ATOM     16  C14  11 d         -13.426 204.829 116.720  0.00  0.00     0.000 A 
ATOM     17  C15  11 d         -14.641 205.100 116.077  0.00  0.00     0.001 A 
ATOM     18  C16  11 d         -14.651 205.793 114.858  0.00  0.00     0.008 A 
ENDBRANCH   1  13
TORSDOF 3
ENDMDL
MODEL 9
REMARK VINA RESULT:      -7.5      1.770      5.673
REMARK  3 active torsions:
REMARK  status: ('A' for Active; 'I' for Inactive)
REMARK       I    between atoms: C1_1  and  N1_2 
REMARK    1  A    between atoms: C1_1  and  C4_6 
REMARK    2  A    between atoms: C4_6  and  C5_7 
REMARK    3  A    between atoms: C4_6  and  C11_13 
ROOT
ATOM      1  C4   11 d         -12.454 206.516 113.529  0.00  0.00     0.144 C 
ENDROOT
BRANCH   1   2
ATOM      2  C1   11 d         -13.547 207.252 112.757  0.00  0.00     0.232 C 
ATOM      3  N1   11 d         -14.023 206.750 111.511  0.00  0.00    -0.360 N 
ATOM      4  C2   11 d         -15.286 205.965 111.474  0.00  0.00     0.152 C 
ATOM      5  C3   11 d         -13.282 207.000 110.243  0.00  0.00     0.152 C 
ATOM      6  O1   11 d         -14.086 208.317 113.222  0.00  0.00    -0.272 OA
ENDBRANCH   1   2
BRANCH   1   7
ATOM      7  C5   11 d         -12.969 205.836 114.807  0.00  0.00    -0.041 A 
ATOM      8  C6   11 d         -12.016 205.470 115.786  0.00  0.00     0.008 A 
ATOM      9  C7   11 d         -12.406 204.854 116.984  0.00  0.00     0.001 A 
ATOM     10  C8   11 d         -13.759 204.599 117.234  0.00  0.00     0.000 A 
ATOM     11  C9   11 d         -14.723 204.968 116.288  0.00  0.00     0.001 A 
ATOM     12  C10  11 d         -14.336 205.587 115.089  0.00  0.00     0.008 A 
ENDBRANCH   1   7
BRANCH   1  13
ATOM     13  C11  11 d         -11.310 207.496 113.763  0.00  0.00    -0.041 A 
ATOM     14  C12  11 d         -10.324 207.689 112.773  0.00  0.00     0.008 A 
ATOM     15  C13  11 d          -9.275 208.600 112.979  0.00  0.00     0.001 A 
ATOM     16  C14  11 d          -9.202 209.330 114.173  0.00  0.00     0.000 A 
ATOM     17  C15  11 d         -10.176 209.153 115.163  0.00  0.00     0.001 A 
ATOM     18  C16  11 d         -11.225 208.245 114.962  0.00  0.00     0.008 A 
ENDBRANCH   1  13
TORSDOF 3
ENDMDL
MODEL 10
REMARK VINA RESULT:      -7.2      1.709      5.084
REMARK  3 active torsions:
REMARK  status: ('A' for Active; 'I' for Inactive)
REMARK       I    between atoms: C1_1  and  N1_2 
REMARK    1  A    between atoms: C1_1  and  C4_6 
REMARK    2  A    between atoms: C4_6  and  C5_7 
REMARK    3  A    between atoms: C4_6  and  C11_13 
ROOT
ATOM      1  C4   11 d         -13.102 206.413 114.582  0.00  0.00     0.144 C 
ENDROOT
BRANCH   1   2
ATOM      2  C1   11 d         -12.531 207.822 114.436  0.00  0.00     0.232 C 
ATOM      3  N1   11 d         -11.124 208.047 114.473  0.00  0.00    -0.360 N 
ATOM      4  C2   11 d         -10.374 208.201 113.197  0.00  0.00     0.152 C 
ATOM      5  C3   11 d         -10.389 208.133 115.766  0.00  0.00     0.152 C 
ATOM      6  O1   11 d         -13.296 208.831 114.243  0.00  0.00    -0.272 OA
ENDBRANCH   1   2
BRANCH   1   7
ATOM      7  C5   11 d         -14.246 206.119 113.600  0.00  0.00    -0.041 A 
ATOM      8  C6   11 d         -13.906 205.573 112.340  0.00  0.00     0.008 A 
ATOM      9  C7   11 d         -14.893 205.266 111.392  0.00  0.00     0.001 A 
ATOM     10  C8   11 d         -16.243 205.492 111.685  0.00  0.00     0.000 A 
ATOM     11  C9   11 d         -16.605 206.017 112.932  0.00  0.00     0.001 A 
ATOM     12  C10  11 d         -15.621 206.322 113.884  0.00  0.00     0.008 A 
ENDBRANCH   1   7
BRANCH   1  13
ATOM     13  C11  11 d         -13.470 206.211 116.047  0.00  0.00    -0.041 A 
ATOM     14  C12  11 d         -13.594 207.320 116.910  0.00  0.00     0.008 A 
ATOM     15  C13  11 d         -13.946 207.140 118.258  0.00  0.00     0.001 A 
ATOM     16  C14  11 d         -14.181 205.852 118.757  0.00  0.00     0.000 A 
ATOM     17  C15  11 d         -14.066 204.741 117.912  0.00  0.00     0.001 A 
ATOM     18  C16  11 d         -13.715 204.917 116.565  0.00  0.00     0.008 A 
ENDBRANCH   1  13
TORSDOF 3
ENDMDL
MODEL 11
REMARK VINA RESULT:      -7.1      1.854      4.865
REMARK  3 active torsions:
REMARK  status: ('A' for Active; 'I' for Inactive)
REMARK       I    between atoms: C1_1  and  N1_2 
REMARK    1  A    between atoms: C1_1  and  C4_6 
REMARK    2  A    between atoms: C4_6  and  C5_7 
REMARK    3  A    between atoms: C4_6  and  C11_13 
ROOT
ATOM      1  C4   11 d         -13.673 206.485 115.143  0.00  0.00     0.144 C 
ENDROOT
BRANCH   1   2
ATOM      2  C1   11 d         -12.183 206.419 114.813  0.00  0.00     0.232 C 
ATOM      3  N1   11 d         -11.508 207.544 114.259  0.00  0.00    -0.360 N 
ATOM      4  C2   11 d         -10.712 208.431 115.151  0.00  0.00     0.152 C 
ATOM      5  C3   11 d         -11.581 207.850 112.803  0.00  0.00     0.152 C 
ATOM      6  O1   11 d         -11.497 205.364 115.054  0.00  0.00    -0.272 OA
ENDBRANCH   1   2
BRANCH   1   7
ATOM      7  C5   11 d         -14.056 205.657 116.379  0.00  0.00    -0.041 A 
ATOM      8  C6   11 d         -13.761 206.201 117.652  0.00  0.00     0.008 A 
ATOM      9  C7   11 d         -14.087 205.512 118.829  0.00  0.00     0.001 A 
ATOM     10  C8   11 d         -14.725 204.268 118.761  0.00  0.00     0.000 A 
ATOM     11  C9   11 d         -15.043 203.717 117.513  0.00  0.00     0.001 A 
ATOM     12  C10  11 d         -14.720 204.405 116.333  0.00  0.00     0.008 A 
ENDBRANCH   1   7
BRANCH   1  13
ATOM     13  C11  11 d         -14.446 206.117 113.882  0.00  0.00    -0.041 A 
ATOM     14  C12  11 d         -15.765 206.578 113.695  0.00  0.00     0.008 A 
ATOM     15  C13  11 d         -16.477 206.251 112.529  0.00  0.00     0.001 A 
ATOM     16  C14  11 d         -15.878 205.464 111.537  0.00  0.00     0.000 A 
ATOM     17  C15  11 d         -14.567 205.002 111.706  0.00  0.00     0.001 A 
ATOM     18  C16  11 d         -13.852 205.326 112.869  0.00  0.00     0.008 A 
ENDBRANCH   1  13
TORSDOF 3
ENDMDL
MODEL 12
REMARK VINA RESULT:      -7.1      1.374      4.553
REMARK  3 active torsions:
REMARK  status: ('A' for Active; 'I' for Inactive)
REMARK       I    between atoms: C1_1  and  N1_2 
REMARK    1  A    between atoms: C1_1  and  C4_6 
REMARK    2  A    between atoms: C4_6  and  C5_7 
REMARK    3  A    between atoms: C4_6  and  C11_13 
ROOT
ATOM      1  C4   11 d         -13.654 207.747 114.357  0.00  0.00     0.144 C 
ENDROOT
BRANCH   1   2
ATOM      2  C1   11 d         -13.705 207.196 115.781  0.00  0.00     0.232 C 
ATOM      3  N1   11 d         -13.627 205.795 116.024  0.00  0.00    -0.360 N 
ATOM      4  C2   11 d         -12.325 205.194 116.423  0.00  0.00     0.152 C 
ATOM      5  C3   11 d         -14.824 204.918 115.890  0.00  0.00     0.152 C 
ATOM      6  O1   11 d         -13.787 207.979 116.791  0.00  0.00    -0.272 OA
ENDBRANCH   1   2
BRANCH   1   7
ATOM      7  C5   11 d         -14.403 206.869 113.342  0.00  0.00    -0.041 A 
ATOM      8  C6   11 d         -13.676 205.837 112.703  0.00  0.00     0.008 A 
ATOM      9  C7   11 d         -14.288 204.985 111.773  0.00  0.00     0.001 A 
ATOM     10  C8   11 d         -15.645 205.141 111.466  0.00  0.00     0.000 A 
ATOM     11  C9   11 d         -16.391 206.144 112.098  0.00  0.00     0.001 A 
ATOM     12  C10  11 d         -15.781 206.996 113.032  0.00  0.00     0.008 A 
ENDBRANCH   1   7
BRANCH   1  13
ATOM     13  C11  11 d         -12.192 207.994 114.006  0.00  0.00    -0.041 A 
ATOM     14  C12  11 d         -11.294 208.466 114.987  0.00  0.00     0.008 A 
ATOM     15  C13  11 d          -9.943 208.685 114.672  0.00  0.00     0.001 A 
ATOM     16  C14  11 d          -9.473 208.430 113.376  0.00  0.00     0.000 A 
ATOM     17  C15  11 d         -10.350 207.957 112.393  0.00  0.00     0.001 A 
ATOM     18  C16  11 d         -11.701 207.738 112.703  0.00  0.00     0.008 A 
ENDBRANCH   1  13
TORSDOF 3
ENDMDL
MODEL 13
REMARK VINA RESULT:      -7.1      1.772      3.976
REMARK  3 active torsions:
REMARK  status: ('A' for Active; 'I' for Inactive)
REMARK       I    between atoms: C1_1  and  N1_2 
REMARK    1  A    between atoms: C1_1  and  C4_6 
REMARK    2  A    between atoms: C4_6  and  C5_7 
REMARK    3  A    between atoms: C4_6  and  C11_13 
ROOT
ATOM      1  C4   11 d         -12.680 207.722 113.252  0.00  0.00     0.144 C 
ENDROOT
BRANCH   1   2
ATOM      2  C1   11 d         -13.357 206.758 112.280  0.00  0.00     0.232 C 
ATOM      3  N1   11 d         -14.754 206.849 112.018  0.00  0.00    -0.360 N 
ATOM      4  C2   11 d         -15.224 207.551 110.793  0.00  0.00     0.152 C 
ATOM      5  C3   11 d         -15.756 206.252 112.945  0.00  0.00     0.152 C 
ATOM      6  O1   11 d         -12.683 205.867 111.652  0.00  0.00    -0.272 OA
ENDBRANCH   1   2
BRANCH   1   7
ATOM      7  C5   11 d         -11.215 208.014 112.893  0.00  0.00    -0.041 A 
ATOM      8  C6   11 d         -10.307 208.227 113.957  0.00  0.00     0.008 A 
ATOM      9  C7   11 d          -8.951 208.489 113.713  0.00  0.00     0.001 A 
ATOM     10  C8   11 d          -8.471 208.536 112.399  0.00  0.00     0.000 A 
ATOM     11  C9   11 d          -9.346 208.312 111.330  0.00  0.00     0.001 A 
ATOM     12  C10  11 d         -10.703 208.047 111.570  0.00  0.00     0.008 A 
ENDBRANCH   1   7
BRANCH   1  13
ATOM     13  C11  11 d         -12.878 207.177 114.661  0.00  0.00    -0.041 A 
ATOM     14  C12  11 d         -13.601 207.920 115.618  0.00  0.00     0.008 A 
ATOM     15  C13  11 d         -13.797 207.416 116.914  0.00  0.00     0.001 A 
ATOM     16  C14  11 d         -13.278 206.164 117.268  0.00  0.00     0.000 A 
ATOM     17  C15  11 d         -12.562 205.411 116.328  0.00  0.00     0.001 A 
ATOM     18  C16  11 d         -12.364 205.911 115.033  0.00  0.00     0.008 A 
ENDBRANCH   1  13
TORSDOF 3
ENDMDL
MODEL 14
REMARK VINA RESULT:      -6.9      2.086      2.594
REMARK  3 active torsions:
REMARK  status: ('A' for Active; 'I' for Inactive)
REMARK       I    between atoms: C1_1  and  N1_2 
REMARK    1  A    between atoms: C1_1  and  C4_6 
REMARK    2  A    between atoms: C4_6  and  C5_7 
REMARK    3  A    between atoms: C4_6  and  C11_13 
ROOT
ATOM      1  C4   11 d         -11.150 207.317 114.647  0.00  0.00     0.144 C 
ENDROOT
BRANCH   1   2
ATOM      2  C1   11 d         -10.916 208.255 115.830  0.00  0.00     0.232 C 
ATOM      3  N1   11 d         -10.778 207.741 117.152  0.00  0.00    -0.360 N 
ATOM      4  C2   11 d          -9.418 207.561 117.728  0.00  0.00     0.152 C 
ATOM      5  C3   11 d         -11.970 207.382 117.970  0.00  0.00     0.152 C 
ATOM      6  O1   11 d         -10.805 209.520 115.661  0.00  0.00    -0.272 OA
ENDBRANCH   1   2
BRANCH   1   7
ATOM      7  C5   11 d         -10.444 207.777 113.362  0.00  0.00    -0.041 A 
ATOM      8  C6   11 d          -9.118 208.255 113.477  0.00  0.00     0.008 A 
ATOM      9  C7   11 d          -8.401 208.684 112.351  0.00  0.00     0.001 A 
ATOM     10  C8   11 d          -8.991 208.635 111.082  0.00  0.00     0.000 A 
ATOM     11  C9   11 d         -10.297 208.150 110.941  0.00  0.00     0.001 A 
ATOM     12  C10  11 d         -11.016 207.718 112.066  0.00  0.00     0.008 A 
ENDBRANCH   1   7
BRANCH   1  13
ATOM     13  C11  11 d         -12.655 207.125 114.497  0.00  0.00    -0.041 A 
ATOM     14  C12  11 d         -13.188 205.844 114.246  0.00  0.00     0.008 A 
ATOM     15  C13  11 d         -14.574 205.660 114.118  0.00  0.00     0.001 A 
ATOM     16  C14  11 d         -15.443 206.752 114.245  0.00  0.00     0.000 A 
ATOM     17  C15  11 d         -14.929 208.030 114.499  0.00  0.00     0.001 A 
ATOM     18  C16  11 d         -13.545 208.218 114.627  0.00  0.00     0.008 A 
ENDBRANCH   1  13
TORSDOF 3
ENDMDL
MODEL 15
REMARK VINA RESULT:      -6.6      2.618      4.393
REMARK  3 active torsions:
REMARK  status: ('A' for Active; 'I' for Inactive)
REMARK       I    between atoms: C1_1  and  N1_2 
REMARK    1  A    between atoms: C1_1  and  C4_6 
REMARK    2  A    between atoms: C4_6  and  C5_7 
REMARK    3  A    between atoms: C4_6  and  C11_13 
ROOT
ATOM      1  C4   11 d          -9.489 207.792 114.033  0.00  0.00     0.144 C 
ENDROOT
BRANCH   1   2
ATOM      2  C1   11 d         -10.441 208.419 115.050  0.00  0.00     0.232 C 
ATOM      3  N1   11 d         -10.725 207.764 116.283  0.00  0.00    -0.360 N 
ATOM      4  C2   11 d         -10.005 208.185 117.516  0.00  0.00     0.152 C 
ATOM      5  C3   11 d         -11.730 206.668 116.363  0.00  0.00     0.152 C 
ATOM      6  O1   11 d         -10.983 209.560 114.835  0.00  0.00    -0.272 OA
ENDBRANCH   1   2
BRANCH   1   7
ATOM      7  C5   11 d          -8.140 208.520 113.939  0.00  0.00    -0.041 A 
ATOM      8  C6   11 d          -7.881 209.546 114.878  0.00  0.00     0.008 A 
ATOM      9  C7   11 d          -6.669 210.252 114.866  0.00  0.00     0.001 A 
ATOM     10  C8   11 d          -5.685 209.942 113.920  0.00  0.00     0.000 A 
ATOM     11  C9   11 d          -5.912 208.919 112.991  0.00  0.00     0.001 A 
ATOM     12  C10  11 d          -7.122 208.209 113.002  0.00  0.00     0.008 A 
ENDBRANCH   1   7
BRANCH   1  13
ATOM     13  C11  11 d         -10.232 207.683 112.706  0.00  0.00    -0.041 A 
ATOM     14  C12  11 d          -9.821 208.448 111.595  0.00  0.00     0.008 A 
ATOM     15  C13  11 d         -10.495 208.342 110.367  0.00  0.00     0.001 A 
ATOM     16  C14  11 d         -11.582 207.468 110.235  0.00  0.00     0.000 A 
ATOM     17  C15  11 d         -11.999 206.698 111.328  0.00  0.00     0.001 A 
ATOM     18  C16  11 d         -11.329 206.801 112.556  0.00  0.00     0.008 A 
ENDBRANCH   1  13
TORSDOF 3
ENDMDL
MODEL 16
REMARK VINA RESULT:      -6.3      6.217      9.179
REMARK  3 active torsions:
REMARK  status: ('A' for Active; 'I' for Inactive)
REMARK       I    between atoms: C1_1  and  N1_2 
REMARK    1  A    between atoms: C1_1  and  C4_6 
REMARK    2  A    between atoms: C4_6  and  C5_7 
REMARK    3  A    between atoms: C4_6  and  C11_13 
ROOT
ATOM      1  C4   11 d          -5.600 208.485 114.978  0.00  0.00     0.144 C 
ENDROOT
BRANCH   1   2
ATOM      2  C1   11 d          -4.276 209.038 114.456  0.00  0.00     0.232 C 
ATOM      3  N1   11 d          -3.113 208.216 114.400  0.00  0.00    -0.360 N 
ATOM      4  C2   11 d          -2.728 207.581 113.110  0.00  0.00     0.152 C 
ATOM      5  C3   11 d          -2.273 207.982 115.607  0.00  0.00     0.152 C 
ATOM      6  O1   11 d          -4.184 210.241 114.025  0.00  0.00    -0.272 OA
ENDBRANCH   1   2
BRANCH   1   7
ATOM      7  C5   11 d          -6.797 208.835 114.082  0.00  0.00    -0.041 A 
ATOM      8  C6   11 d          -6.761 208.398 112.737  0.00  0.00     0.008 A 
ATOM      9  C7   11 d          -7.819 208.668 111.857  0.00  0.00     0.001 A 
ATOM     10  C8   11 d          -8.942 209.373 112.305  0.00  0.00     0.000 A 
ATOM     11  C9   11 d          -9.009 209.801 113.637  0.00  0.00     0.001 A 
ATOM     12  C10  11 d          -7.953 209.530 114.520  0.00  0.00     0.008 A 
ENDBRANCH   1   7
BRANCH   1  13
ATOM     13  C11  11 d          -5.753 208.935 116.426  0.00  0.00    -0.041 A 
ATOM     14  C12  11 d          -6.343 208.079 117.380  0.00  0.00     0.008 A 
ATOM     15  C13  11 d          -6.475 208.485 118.718  0.00  0.00     0.001 A 
ATOM     16  C14  11 d          -6.016 209.747 119.119  0.00  0.00     0.000 A 
ATOM     17  C15  11 d          -5.424 210.606 118.185  0.00  0.00     0.001 A 
ATOM     18  C16  11 d          -5.290 210.205 116.848  0.00  0.00     0.008 A 
ENDBRANCH   1  13
TORSDOF 3
ENDMDL
MODEL 17
REMARK VINA RESULT:      -6.1      5.496      7.808
REMARK  3 active torsions:
REMARK  status: ('A' for Active; 'I' for Inactive)
REMARK       I    between atoms: C1_1  and  N1_2 
REMARK    1  A    between atoms: C1_1  and  C4_6 
REMARK    2  A    between atoms: C4_6  and  C5_7 
REMARK    3  A    between atoms: C4_6  and  C11_13 
ROOT
ATOM      1  C4   11 d          -5.941 208.654 114.883  0.00  0.00     0.144 C 
ENDROOT
BRANCH   1   2
ATOM      2  C1   11 d          -5.972 209.824 115.864  0.00  0.00     0.232 C 
ATOM      3  N1   11 d          -5.656 209.631 117.240  0.00  0.00    -0.360 N 
ATOM      4  C2   11 d          -4.292 209.968 117.730  0.00  0.00     0.152 C 
ATOM      5  C3   11 d          -6.665 209.100 118.199  0.00  0.00     0.152 C 
ATOM      6  O1   11 d          -6.252 211.011 115.472  0.00  0.00    -0.272 OA
ENDBRANCH   1   2
BRANCH   1   7
ATOM      7  C5   11 d          -4.654 208.602 114.046  0.00  0.00    -0.041 A 
ATOM      8  C6   11 d          -3.959 207.371 113.984  0.00  0.00     0.008 A 
ATOM      9  C7   11 d          -2.782 207.237 113.233  0.00  0.00     0.001 A 
ATOM     10  C8   11 d          -2.277 208.331 112.520  0.00  0.00     0.000 A 
ATOM     11  C9   11 d          -2.956 209.556 112.551  0.00  0.00     0.001 A 
ATOM     12  C10  11 d          -4.135 209.691 113.300  0.00  0.00     0.008 A 
ENDBRANCH   1   7
BRANCH   1  13
ATOM     13  C11  11 d          -7.220 208.706 114.056  0.00  0.00    -0.041 A 
ATOM     14  C12  11 d          -7.165 208.589 112.652  0.00  0.00     0.008 A 
ATOM     15  C13  11 d          -8.342 208.624 111.886  0.00  0.00     0.001 A 
ATOM     16  C14  11 d          -9.586 208.771 112.515  0.00  0.00     0.000 A 
ATOM     17  C15  11 d          -9.657 208.884 113.909  0.00  0.00     0.001 A 
ATOM     18  C16  11 d          -8.484 208.850 114.677  0.00  0.00     0.008 A 
ENDBRANCH   1  13
TORSDOF 3
ENDMDL
MODEL 18
REMARK VINA RESULT:      -6.0      5.525      8.840
REMARK  3 active torsions:
REMARK  status: ('A' for Active; 'I' for Inactive)
REMARK       I    between atoms: C1_1  and  N1_2 
REMARK    1  A    between atoms: C1_1  and  C4_6 
REMARK    2  A    between atoms: C4_6  and  C5_7 
REMARK    3  A    between atoms: C4_6  and  C11_13 
ROOT
ATOM      1  C4   11 d          -6.028 209.439 114.866  0.00  0.00     0.144 C 
ENDROOT
BRANCH   1   2
ATOM      2  C1   11 d          -5.931 208.965 116.315  0.00  0.00     0.232 C 
ATOM      3  N1   11 d          -5.049 209.604 117.234  0.00  0.00    -0.360 N 
ATOM      4  C2   11 d          -5.589 210.620 118.177  0.00  0.00     0.152 C 
ATOM      5  C3   11 d          -3.597 209.272 117.271  0.00  0.00     0.152 C 
ATOM      6  O1   11 d          -6.660 208.004 116.748  0.00  0.00    -0.272 OA
ENDBRANCH   1   2
BRANCH   1   7
ATOM      7  C5   11 d          -7.383 209.122 114.216  0.00  0.00    -0.041 A 
ATOM      8  C6   11 d          -7.385 208.746 112.851  0.00  0.00     0.008 A 
ATOM      9  C7   11 d          -8.579 208.431 112.186  0.00  0.00     0.001 A 
ATOM     10  C8   11 d          -9.797 208.475 112.874  0.00  0.00     0.000 A 
ATOM     11  C9   11 d          -9.819 208.827 114.229  0.00  0.00     0.001 A 
ATOM     12  C10  11 d          -8.626 209.140 114.898  0.00  0.00     0.008 A 
ENDBRANCH   1   7
BRANCH   1  13
ATOM     13  C11  11 d          -4.828 208.878 114.112  0.00  0.00    -0.041 A 
ATOM     14  C12  11 d          -4.481 207.517 114.236  0.00  0.00     0.008 A 
ATOM     15  C13  11 d          -3.384 206.992 113.534  0.00  0.00     0.001 A 
ATOM     16  C14  11 d          -2.624 207.820 112.697  0.00  0.00     0.000 A 
ATOM     17  C15  11 d          -2.959 209.173 112.559  0.00  0.00     0.001 A 
ATOM     18  C16  11 d          -4.054 209.701 113.259  0.00  0.00     0.008 A 
ENDBRANCH   1  13
TORSDOF 3
ENDMDL
MODEL 19
REMARK VINA RESULT:      -6.0      5.811      9.216
REMARK  3 active torsions:
REMARK  status: ('A' for Active; 'I' for Inactive)
REMARK       I    between atoms: C1_1  and  N1_2 
REMARK    1  A    between atoms: C1_1  and  C4_6 
REMARK    2  A    between atoms: C4_6  and  C5_7 
REMARK    3  A    between atoms: C4_6  and  C11_13 
ROOT
ATOM      1  C4   11 d          -6.419 208.507 115.641  0.00  0.00     0.144 C 
ENDROOT
BRANCH   1   2
ATOM      2  C1   11 d          -7.355 209.450 114.887  0.00  0.00     0.232 C 
ATOM      3  N1   11 d          -8.560 208.967 114.301  0.00  0.00    -0.360 N 
ATOM      4  C2   11 d          -9.848 209.149 115.023  0.00  0.00     0.152 C 
ATOM      5  C3   11 d          -8.557 208.285 112.976  0.00  0.00     0.152 C 
ATOM      6  O1   11 d          -7.098 210.701 114.790  0.00  0.00    -0.272 OA
ENDBRANCH   1   2
BRANCH   1   7
ATOM      7  C5   11 d          -5.952 209.070 116.991  0.00  0.00    -0.041 A 
ATOM      8  C6   11 d          -6.701 208.726 118.142  0.00  0.00     0.008 A 
ATOM      9  C7   11 d          -6.335 209.191 119.413  0.00  0.00     0.001 A 
ATOM     10  C8   11 d          -5.206 210.004 119.564  0.00  0.00     0.000 A 
ATOM     11  C9   11 d          -4.439 210.345 118.444  0.00  0.00     0.001 A 
ATOM     12  C10  11 d          -4.801 209.879 117.170  0.00  0.00     0.008 A 
ENDBRANCH   1   7
BRANCH   1  13
ATOM     13  C11  11 d          -5.284 208.127 114.698  0.00  0.00    -0.041 A 
ATOM     14  C12  11 d          -5.034 208.891 113.539  0.00  0.00     0.008 A 
ATOM     15  C13  11 d          -3.981 208.552 112.674  0.00  0.00     0.001 A 
ATOM     16  C14  11 d          -3.164 207.450 112.958  0.00  0.00     0.000 A 
ATOM     17  C15  11 d          -3.396 206.684 114.107  0.00  0.00     0.001 A 
ATOM     18  C16  11 d          -4.447 207.019 114.974  0.00  0.00     0.008 A 
ENDBRANCH   1  13
TORSDOF 3
ENDMDL
MODEL 20
REMARK VINA RESULT:      -5.9      2.718      5.771
REMARK  3 active torsions:
REMARK  status: ('A' for Active; 'I' for Inactive)
REMARK       I    between atoms: C1_1  and  N1_2 
REMARK    1  A    between atoms: C1_1  and  C4_6 
REMARK    2  A    between atoms: C4_6  and  C5_7 
REMARK    3  A    between atoms: C4_6  and  C11_13 
ROOT
ATOM      1  C4   11 d         -13.645 206.179 116.884  0.00  0.00     0.144 C 
ENDROOT
BRANCH   1   2
ATOM      2  C1   11 d         -12.131 205.986 116.829  0.00  0.00     0.232 C 
ATOM      3  N1   11 d         -11.268 206.751 117.666  0.00  0.00    -0.360 N 
ATOM      4  C2   11 d         -10.749 206.150 118.924  0.00  0.00     0.152 C 
ATOM      5  C3   11 d         -10.871 208.140 117.304  0.00  0.00     0.152 C 
ATOM      6  O1   11 d         -11.601 205.113 116.056  0.00  0.00    -0.272 OA
ENDBRANCH   1   2
BRANCH   1   7
ATOM      7  C5   11 d         -14.384 204.986 117.509  0.00  0.00    -0.041 A 
ATOM      8  C6   11 d         -14.600 205.006 118.907  0.00  0.00     0.008 A 
ATOM      9  C7   11 d         -15.275 203.961 119.553  0.00  0.00     0.001 A 
ATOM     10  C8   11 d         -15.758 202.875 118.813  0.00  0.00     0.000 A 
ATOM     11  C9   11 d         -15.572 202.840 117.426  0.00  0.00     0.001 A 
ATOM     12  C10  11 d         -14.899 203.887 116.776  0.00  0.00     0.008 A 
ENDBRANCH   1   7
BRANCH   1  13
ATOM     13  C11  11 d         -14.119 206.540 115.481  0.00  0.00    -0.041 A 
ATOM     14  C12  11 d         -13.448 207.533 114.736  0.00  0.00     0.008 A 
ATOM     15  C13  11 d         -13.874 207.861 113.439  0.00  0.00     0.001 A 
ATOM     16  C14  11 d         -14.969 207.198 112.869  0.00  0.00     0.000 A 
ATOM     17  C15  11 d         -15.643 206.207 113.594  0.00  0.00     0.001 A 
ATOM     18  C16  11 d         -15.221 205.877 114.890  0.00  0.00     0.008 A 
ENDBRANCH   1  13
TORSDOF 3
ENDMDL
