MODEL 1
REMARK VINA RESULT:      -7.7      0.000      0.000
REMARK  0 active torsions:
REMARK  status: ('A' for Active; 'I' for Inactive)
REMARK       I    between atoms: C1_1  and  N1_2 
REMARK       I    between atoms: C1_1  and  N4_15 
ROOT
ATOM      1  C1   11 d         -13.192 206.633 118.337  0.00  0.00     0.689 C 
ATOM      2  N1   11 d         -13.426 206.600 116.960  0.00  0.00    -0.214 N 
ATOM      3  C2   11 d         -13.362 207.779 116.157  0.00  0.00     0.161 C 
ATOM      4  C3   11 d         -14.665 207.947 115.362  0.00  0.00     0.143 C 
ATOM      5  N2   11 d         -14.993 206.731 114.696  0.00  0.00    -0.378 N 
ATOM      6  C4   11 d         -15.270 206.708 113.328  0.00  0.00     0.030 A 
ATOM      7  C5   11 d         -16.447 206.096 112.847  0.00  0.00     0.029 A 
ATOM      8  C6   11 d         -16.728 206.069 111.474  0.00  0.00     0.002 A 
ATOM      9  C7   11 d         -15.839 206.655 110.562  0.00  0.00     0.000 A 
ATOM     10  C8   11 d         -14.666 207.267 111.026  0.00  0.00     0.002 A 
ATOM     11  C9   11 d         -14.380 207.291 112.399  0.00  0.00     0.029 A 
ATOM     12  C10  11 d         -15.023 205.525 115.459  0.00  0.00     0.143 C 
ATOM     13  C11  11 d         -13.749 205.374 116.304  0.00  0.00     0.161 C 
ATOM     14  N3   11 d         -13.848 207.440 119.127  0.00  0.00    -0.118 NA
ATOM     15  N4   11 d         -12.253 205.795 118.894  0.00  0.00    -0.233 N 
ATOM     16  H14  11 d         -14.575 208.034 118.646  0.00  0.00     0.206 HD
ATOM     17  H15  11 d         -11.706 205.193 118.322  0.00  0.00     0.174 HD
ATOM     18  H16  11 d         -12.107 205.778 119.878  0.00  0.00     0.174 HD
ENDROOT
TORSDOF 0
ENDMDL
MODEL 2
REMARK VINA RESULT:      -7.4      2.038      2.839
REMARK  0 active torsions:
REMARK  status: ('A' for Active; 'I' for Inactive)
REMARK       I    between atoms: C1_1  and  N1_2 
REMARK       I    between atoms: C1_1  and  N4_15 
ROOT
ATOM      1  C1   11 d         -10.819 207.921 116.955  0.00  0.00     0.689 C 
ATOM      2  N1   11 d         -11.810 207.848 115.974  0.00  0.00    -0.214 N 
ATOM      3  C2   11 d         -12.915 206.949 116.085  0.00  0.00     0.161 C 
ATOM      4  C3   11 d         -13.011 206.074 114.828  0.00  0.00     0.143 C 
ATOM      5  N2   11 d         -12.957 206.886 113.658  0.00  0.00    -0.378 N 
ATOM      6  C4   11 d         -13.925 206.779 112.659  0.00  0.00     0.030 A 
ATOM      7  C5   11 d         -13.544 206.600 111.312  0.00  0.00     0.029 A 
ATOM      8  C6   11 d         -14.513 206.495 110.303  0.00  0.00     0.002 A 
ATOM      9  C7   11 d         -15.875 206.562 110.627  0.00  0.00     0.000 A 
ATOM     10  C8   11 d         -16.268 206.738 111.962  0.00  0.00     0.002 A 
ATOM     11  C9   11 d         -15.300 206.849 112.971  0.00  0.00     0.029 A 
ATOM     12  C10  11 d         -11.891 207.827 113.534  0.00  0.00     0.143 C 
ATOM     13  C11  11 d         -11.747 208.672 114.809  0.00  0.00     0.161 C 
ATOM     14  N3   11 d         -10.167 206.863 117.356  0.00  0.00    -0.118 NA
ATOM     15  N4   11 d         -10.503 209.135 117.522  0.00  0.00    -0.233 N 
ATOM     16  H14  11 d         -10.432 205.970 116.862  0.00  0.00     0.206 HD
ATOM     17  H15  11 d         -11.003 209.958 117.273  0.00  0.00     0.174 HD
ATOM     18  H16  11 d          -9.771 209.208 118.191  0.00  0.00     0.174 HD
ENDROOT
TORSDOF 0
ENDMDL
MODEL 3
REMARK VINA RESULT:      -7.1      2.553      3.137
REMARK  0 active torsions:
REMARK  status: ('A' for Active; 'I' for Inactive)
REMARK       I    between atoms: C1_1  and  N1_2 
REMARK       I    between atoms: C1_1  and  N4_15 
ROOT
ATOM      1  C1   11 d         -12.266 206.588 118.176  0.00  0.00     0.689 C 
ATOM      2  N1   11 d         -11.833 206.723 116.855  0.00  0.00    -0.214 N 
ATOM      3  C2   11 d         -11.363 207.970 116.340  0.00  0.00     0.161 C 
ATOM      4  C3   11 d         -12.139 208.341 115.069  0.00  0.00     0.143 C 
ATOM      5  N2   11 d         -12.159 207.239 114.166  0.00  0.00    -0.378 N 
ATOM      6  C4   11 d         -11.767 207.388 112.835  0.00  0.00     0.030 A 
ATOM      7  C5   11 d         -12.605 206.942 111.790  0.00  0.00     0.029 A 
ATOM      8  C6   11 d         -12.214 207.087 110.451  0.00  0.00     0.002 A 
ATOM      9  C7   11 d         -10.984 207.682 110.138  0.00  0.00     0.000 A 
ATOM     10  C8   11 d         -10.142 208.130 111.166  0.00  0.00     0.002 A 
ATOM     11  C9   11 d         -10.529 207.981 112.506  0.00  0.00     0.029 A 
ATOM     12  C10  11 d         -12.581 205.967 114.657  0.00  0.00     0.143 C 
ATOM     13  C11  11 d         -11.852 205.609 115.962  0.00  0.00     0.161 C 
ATOM     14  N3   11 d         -13.188 207.364 118.681  0.00  0.00    -0.118 NA
ATOM     15  N4   11 d         -11.723 205.612 118.980  0.00  0.00    -0.233 N 
ATOM     16  H14  11 d         -13.586 208.070 118.007  0.00  0.00     0.206 HD
ATOM     17  H15  11 d         -10.993 205.026 118.645  0.00  0.00     0.174 HD
ATOM     18  H16  11 d         -12.053 205.477 119.909  0.00  0.00     0.174 HD
ENDROOT
TORSDOF 0
ENDMDL
MODEL 4
REMARK VINA RESULT:      -6.8      3.804      6.417
REMARK  0 active torsions:
REMARK  status: ('A' for Active; 'I' for Inactive)
REMARK       I    between atoms: C1_1  and  N1_2 
REMARK       I    between atoms: C1_1  and  N4_15 
ROOT
ATOM      1  C1   11 d         -15.211 205.952 111.415  0.00  0.00     0.689 C 
ATOM      2  N1   11 d         -14.087 206.745 111.662  0.00  0.00    -0.214 N 
ATOM      3  C2   11 d         -12.852 206.535 110.974  0.00  0.00     0.161 C 
ATOM      4  C3   11 d         -11.710 206.360 111.984  0.00  0.00     0.143 C 
ATOM      5  N2   11 d         -11.741 207.409 112.948  0.00  0.00    -0.378 N 
ATOM      6  C4   11 d         -10.604 208.170 113.224  0.00  0.00     0.030 A 
ATOM      7  C5   11 d         -10.166 208.344 114.554  0.00  0.00     0.029 A 
ATOM      8  C6   11 d          -9.026 209.110 114.836  0.00  0.00     0.002 A 
ATOM      9  C7   11 d          -8.305 209.708 113.794  0.00  0.00     0.000 A 
ATOM     10  C8   11 d          -8.728 209.544 112.467  0.00  0.00     0.002 A 
ATOM     11  C9   11 d          -9.872 208.782 112.183  0.00  0.00     0.029 A 
ATOM     12  C10  11 d         -12.969 207.675 113.623  0.00  0.00     0.143 C 
ATOM     13  C11  11 d         -14.133 207.797 112.626  0.00  0.00     0.161 C 
ATOM     14  N3   11 d         -15.165 204.649 111.494  0.00  0.00    -0.118 NA
ATOM     15  N4   11 d         -16.409 206.545 111.085  0.00  0.00    -0.233 N 
ATOM     16  H14  11 d         -14.229 204.258 111.782  0.00  0.00     0.206 HD
ATOM     17  H15  11 d         -16.476 207.531 110.978  0.00  0.00     0.174 HD
ATOM     18  H16  11 d         -17.226 205.995 110.949  0.00  0.00     0.174 HD
ENDROOT
TORSDOF 0
ENDMDL
MODEL 5
REMARK VINA RESULT:      -6.7      4.081      4.818
REMARK  0 active torsions:
REMARK  status: ('A' for Active; 'I' for Inactive)
REMARK       I    between atoms: C1_1  and  N1_2 
REMARK       I    between atoms: C1_1  and  N4_15 
ROOT
ATOM      1  C1   11 d          -7.884 209.093 115.396  0.00  0.00     0.689 C 
ATOM      2  N1   11 d          -9.123 208.919 114.774  0.00  0.00    -0.214 N 
ATOM      3  C2   11 d         -10.298 208.588 115.516  0.00  0.00     0.161 C 
ATOM      4  C3   11 d         -10.953 207.329 114.933  0.00  0.00     0.143 C 
ATOM      5  N2   11 d         -11.098 207.459 113.522  0.00  0.00    -0.378 N 
ATOM      6  C4   11 d         -12.327 207.241 112.898  0.00  0.00     0.030 A 
ATOM      7  C5   11 d         -12.425 206.362 111.799  0.00  0.00     0.029 A 
ATOM      8  C6   11 d         -13.657 206.141 111.168  0.00  0.00     0.002 A 
ATOM      9  C7   11 d         -14.810 206.793 111.628  0.00  0.00     0.000 A 
ATOM     10  C8   11 d         -14.728 207.669 112.720  0.00  0.00     0.002 A 
ATOM     11  C9   11 d         -13.494 207.895 113.350  0.00  0.00     0.029 A 
ATOM     12  C10  11 d          -9.954 207.831 112.753  0.00  0.00     0.143 C 
ATOM     13  C11  11 d          -9.256 209.058 113.360  0.00  0.00     0.161 C 
ATOM     14  N3   11 d          -7.370 208.178 116.174  0.00  0.00    -0.118 NA
ATOM     15  N4   11 d          -7.169 210.251 115.189  0.00  0.00    -0.233 N 
ATOM     16  H14  11 d          -7.950 207.303 116.268  0.00  0.00     0.206 HD
ATOM     17  H15  11 d          -7.543 210.986 114.634  0.00  0.00     0.174 HD
ATOM     18  H16  11 d          -6.267 210.369 115.591  0.00  0.00     0.174 HD
ENDROOT
TORSDOF 0
ENDMDL
MODEL 6
REMARK VINA RESULT:      -6.4      3.719      4.849
REMARK  0 active torsions:
REMARK  status: ('A' for Active; 'I' for Inactive)
REMARK       I    between atoms: C1_1  and  N1_2 
REMARK       I    between atoms: C1_1  and  N4_15 
ROOT
ATOM      1  C1   11 d         -13.492 206.007 117.458  0.00  0.00     0.689 C 
ATOM      2  N1   11 d         -12.400 206.459 116.713  0.00  0.00    -0.214 N 
ATOM      3  C2   11 d         -11.820 207.746 116.933  0.00  0.00     0.161 C 
ATOM      4  C3   11 d         -11.768 208.532 115.615  0.00  0.00     0.143 C 
ATOM      5  N2   11 d         -11.190 207.732 114.588  0.00  0.00    -0.378 N 
ATOM      6  C4   11 d         -10.127 208.204 113.816  0.00  0.00     0.030 A 
ATOM      7  C5   11 d         -10.191 208.153 112.407  0.00  0.00     0.029 A 
ATOM      8  C6   11 d          -9.125 208.624 111.627  0.00  0.00     0.002 A 
ATOM      9  C7   11 d          -7.984 209.156 112.243  0.00  0.00     0.000 A 
ATOM     10  C8   11 d          -7.907 209.213 113.642  0.00  0.00     0.002 A 
ATOM     11  C9   11 d          -8.971 208.738 114.424  0.00  0.00     0.029 A 
ATOM     12  C10  11 d         -11.715 206.423 114.370  0.00  0.00     0.143 C 
ATOM     13  C11  11 d         -11.826 205.645 115.691  0.00  0.00     0.161 C 
ATOM     14  N3   11 d         -14.594 206.701 117.555  0.00  0.00    -0.118 NA
ATOM     15  N4   11 d         -13.424 204.796 118.109  0.00  0.00    -0.233 N 
ATOM     16  H14  11 d         -14.596 207.603 117.009  0.00  0.00     0.206 HD
ATOM     17  H15  11 d         -12.589 204.256 118.092  0.00  0.00     0.174 HD
ATOM     18  H16  11 d         -14.208 204.443 118.608  0.00  0.00     0.174 HD
ENDROOT
TORSDOF 0
ENDMDL
MODEL 7
REMARK VINA RESULT:      -6.3      2.813      3.452
REMARK  0 active torsions:
REMARK  status: ('A' for Active; 'I' for Inactive)
REMARK       I    between atoms: C1_1  and  N1_2 
REMARK       I    between atoms: C1_1  and  N4_15 
ROOT
ATOM      1  C1   11 d          -9.692 207.938 118.771  0.00  0.00     0.689 C 
ATOM      2  N1   11 d         -10.128 207.596 117.489  0.00  0.00    -0.214 N 
ATOM      3  C2   11 d          -9.580 208.208 116.320  0.00  0.00     0.161 C 
ATOM      4  C3   11 d         -10.706 208.798 115.458  0.00  0.00     0.143 C 
ATOM      5  N2   11 d         -11.731 207.829 115.258  0.00  0.00    -0.378 N 
ATOM      6  C4   11 d         -12.195 207.522 113.979  0.00  0.00     0.030 A 
ATOM      7  C5   11 d         -13.578 207.546 113.695  0.00  0.00     0.029 A 
ATOM      8  C6   11 d         -14.049 207.236 112.412  0.00  0.00     0.002 A 
ATOM      9  C7   11 d         -13.147 206.901 111.393  0.00  0.00     0.000 A 
ATOM     10  C8   11 d         -11.771 206.874 111.660  0.00  0.00     0.002 A 
ATOM     11  C9   11 d         -11.297 207.179 112.945  0.00  0.00     0.029 A 
ATOM     12  C10  11 d         -12.271 207.166 116.401  0.00  0.00     0.143 C 
ATOM     13  C11  11 d         -11.152 206.619 117.302  0.00  0.00     0.161 C 
ATOM     14  N3   11 d          -9.682 209.176 119.188  0.00  0.00    -0.118 NA
ATOM     15  N4   11 d          -9.264 206.955 119.635  0.00  0.00    -0.233 N 
ATOM     16  H14  11 d         -10.051 209.877 118.493  0.00  0.00     0.206 HD
ATOM     17  H15  11 d          -9.220 206.006 119.343  0.00  0.00     0.174 HD
ATOM     18  H16  11 d          -8.991 207.180 120.565  0.00  0.00     0.174 HD
ENDROOT
TORSDOF 0
ENDMDL
MODEL 8
REMARK VINA RESULT:      -6.3      5.222      5.997
REMARK  0 active torsions:
REMARK  status: ('A' for Active; 'I' for Inactive)
REMARK       I    between atoms: C1_1  and  N1_2 
REMARK       I    between atoms: C1_1  and  N4_15 
ROOT
ATOM      1  C1   11 d          -6.351 209.932 115.763  0.00  0.00     0.689 C 
ATOM      2  N1   11 d          -7.407 209.176 115.248  0.00  0.00    -0.214 N 
ATOM      3  C2   11 d          -7.657 209.091 113.844  0.00  0.00     0.161 C 
ATOM      4  C3   11 d          -9.110 209.483 113.542  0.00  0.00     0.143 C 
ATOM      5  N2   11 d          -9.998 208.771 114.399  0.00  0.00    -0.378 N 
ATOM      6  C4   11 d         -11.078 208.053 113.883  0.00  0.00     0.030 A 
ATOM      7  C5   11 d         -12.379 208.254 114.395  0.00  0.00     0.029 A 
ATOM      8  C6   11 d         -13.467 207.533 113.882  0.00  0.00     0.002 A 
ATOM      9  C7   11 d         -13.272 206.606 112.849  0.00  0.00     0.000 A 
ATOM     10  C8   11 d         -11.986 206.397 112.331  0.00  0.00     0.002 A 
ATOM     11  C9   11 d         -10.895 207.114 112.846  0.00  0.00     0.029 A 
ATOM     12  C10  11 d          -9.754 208.798 115.804  0.00  0.00     0.143 C 
ATOM     13  C11  11 d          -8.286 208.462 116.116  0.00  0.00     0.161 C 
ATOM     14  N3   11 d          -6.196 211.193 115.463  0.00  0.00    -0.118 NA
ATOM     15  N4   11 d          -5.443 209.348 116.618  0.00  0.00    -0.233 N 
ATOM     16  H14  11 d          -6.941 211.590 114.831  0.00  0.00     0.206 HD
ATOM     17  H15  11 d          -5.503 208.381 116.840  0.00  0.00     0.174 HD
ATOM     18  H16  11 d          -4.711 209.885 117.025  0.00  0.00     0.174 HD
ENDROOT
TORSDOF 0
ENDMDL
MODEL 9
REMARK VINA RESULT:      -6.1      4.211      6.315
REMARK  0 active torsions:
REMARK  status: ('A' for Active; 'I' for Inactive)
REMARK       I    between atoms: C1_1  and  N1_2 
REMARK       I    between atoms: C1_1  and  N4_15 
ROOT
ATOM      1  C1   11 d          -8.631 209.440 112.571  0.00  0.00     0.689 C 
ATOM      2  N1   11 d          -9.303 208.627 113.487  0.00  0.00    -0.214 N 
ATOM      3  C2   11 d         -10.171 207.574 113.064  0.00  0.00     0.161 C 
ATOM      4  C3   11 d         -11.551 207.735 113.716  0.00  0.00     0.143 C 
ATOM      5  N2   11 d         -11.412 207.930 115.120  0.00  0.00    -0.378 N 
ATOM      6  C4   11 d         -12.118 207.145 116.032  0.00  0.00     0.030 A 
ATOM      7  C5   11 d         -12.877 207.749 117.057  0.00  0.00     0.029 A 
ATOM      8  C6   11 d         -13.587 206.964 117.977  0.00  0.00     0.002 A 
ATOM      9  C7   11 d         -13.552 205.566 117.884  0.00  0.00     0.000 A 
ATOM     10  C8   11 d         -12.802 204.952 116.871  0.00  0.00     0.002 A 
ATOM     11  C9   11 d         -12.087 205.735 115.952  0.00  0.00     0.029 A 
ATOM     12  C10  11 d         -10.519 208.944 115.580  0.00  0.00     0.143 C 
ATOM     13  C11  11 d          -9.150 208.828 114.892  0.00  0.00     0.161 C 
ATOM     14  N3   11 d          -9.264 210.080 111.625  0.00  0.00    -0.118 NA
ATOM     15  N4   11 d          -7.265 209.587 112.657  0.00  0.00    -0.233 N 
ATOM     16  H14  11 d         -10.311 209.953 111.631  0.00  0.00     0.206 HD
ATOM     17  H15  11 d          -6.742 209.086 113.338  0.00  0.00     0.174 HD
ATOM     18  H16  11 d          -6.780 210.195 112.037  0.00  0.00     0.174 HD
ENDROOT
TORSDOF 0
ENDMDL
MODEL 10
REMARK VINA RESULT:      -6.1      2.639      6.240
REMARK  0 active torsions:
REMARK  status: ('A' for Active; 'I' for Inactive)
REMARK       I    between atoms: C1_1  and  N1_2 
REMARK       I    between atoms: C1_1  and  N4_15 
ROOT
ATOM      1  C1   11 d         -14.502 206.367 110.979  0.00  0.00     0.689 C 
ATOM      2  N1   11 d         -13.792 206.909 112.054  0.00  0.00    -0.214 N 
ATOM      3  C2   11 d         -12.382 206.722 112.195  0.00  0.00     0.161 C 
ATOM      4  C3   11 d         -12.064 206.136 113.577  0.00  0.00     0.143 C 
ATOM      5  N2   11 d         -12.719 206.889 114.593  0.00  0.00    -0.378 N 
ATOM      6  C4   11 d         -12.014 207.391 115.688  0.00  0.00     0.030 A 
ATOM      7  C5   11 d         -12.470 207.150 117.002  0.00  0.00     0.029 A 
ATOM      8  C6   11 d         -11.766 207.654 118.106  0.00  0.00     0.002 A 
ATOM      9  C7   11 d         -10.597 208.402 117.912  0.00  0.00     0.000 A 
ATOM     10  C8   11 d         -10.133 208.650 116.612  0.00  0.00     0.002 A 
ATOM     11  C9   11 d         -10.838 208.151 115.506  0.00  0.00     0.029 A 
ATOM     12  C10  11 d         -14.119 207.133 114.462  0.00  0.00     0.143 C 
ATOM     13  C11  11 d         -14.459 207.667 113.062  0.00  0.00     0.161 C 
ATOM     14  N3   11 d         -14.446 205.095 110.687  0.00  0.00    -0.118 NA
ATOM     15  N4   11 d         -15.293 207.181 110.200  0.00  0.00    -0.233 N 
ATOM     16  H14  11 d         -13.849 204.520 111.339  0.00  0.00     0.206 HD
ATOM     17  H15  11 d         -15.333 208.160 110.366  0.00  0.00     0.174 HD
ATOM     18  H16  11 d         -15.837 206.802 109.459  0.00  0.00     0.174 HD
ENDROOT
TORSDOF 0
ENDMDL
