MODEL 1
REMARK VINA RESULT:      -8.3      0.000      0.000
REMARK  6 active torsions:
REMARK  status: ('A' for Active; 'I' for Inactive)
REMARK    1  A    between atoms: C1_1  and  C9_10 
REMARK    2  A    between atoms: C9_10  and  P1_11 
REMARK    3  A    between atoms: C9_10  and  N2_17 
REMARK    4  A    between atoms: P1_11  and  O2_13 
REMARK    5  A    between atoms: P1_11  and  O3_15 
REMARK    6  A    between atoms: N2_17  and  C12_18 
ROOT
ATOM      1  C9   11 d         -12.944 206.491 114.777  0.00  0.00     0.236 C 
ENDROOT
BRANCH   1   2
ATOM      2  C1   11 d         -14.241 206.391 113.993  0.00  0.00     0.004 A 
ATOM      3  C2   11 d         -14.427 206.584 112.628  0.00  0.00     0.001 A 
ATOM      4  C3   11 d         -15.772 206.395 112.358  0.00  0.00     0.043 A 
ATOM      5  C7   11 d         -13.521 206.904 111.604  0.00  0.00     0.014 A 
ATOM      6  C4   11 d         -16.286 206.515 111.062  0.00  0.00     0.030 A 
ATOM      7  N1   11 d         -16.412 206.100 113.502  0.00  0.00    -0.365 N 
ATOM      8  C5   11 d         -15.393 206.836 110.020  0.00  0.00     0.002 A 
ATOM      9  C6   11 d         -14.019 207.030 110.290  0.00  0.00     0.001 A 
ATOM     10  C8   11 d         -15.508 206.090 114.507  0.00  0.00     0.099 A 
ATOM     11  H5   11 d         -17.439 205.906 113.601  0.00  0.00     0.165 HD
ENDBRANCH   1   2
BRANCH   1  12
ATOM     12  P1   11 d         -13.203 205.941 116.356  0.00  0.00     0.355 P 
ATOM     13  O1   11 d         -11.933 205.680 116.980  0.00  0.00    -0.256 OA
BRANCH  12  14
ATOM     14  O2   11 d         -14.069 204.571 116.309  0.00  0.00    -0.317 OA
ATOM     15  C10  11 d         -14.433 204.146 117.647  0.00  0.00     0.212 C 
ENDBRANCH  12  14
BRANCH  12  16
ATOM     16  O3   11 d         -14.037 207.038 117.218  0.00  0.00    -0.317 OA
ATOM     17  C11  11 d         -13.239 207.621 118.280  0.00  0.00     0.212 C 
ENDBRANCH  12  16
ENDBRANCH   1  12
BRANCH   1  18
ATOM     18  N2   11 d         -12.437 207.831 114.721  0.00  0.00    -0.371 N 
ATOM     19  H14  11 d         -13.066 208.588 114.882  0.00  0.00     0.161 HD
BRANCH  18  20
ATOM     20  C12  11 d         -11.114 208.170 114.457  0.00  0.00     0.029 A 
ATOM     21  C13  11 d         -10.574 207.859 113.193  0.00  0.00     0.030 A 
ATOM     22  C14  11 d          -9.240 208.171 112.887  0.00  0.00     0.021 A 
ATOM     23  C15  11 d          -8.426 208.791 113.846  0.00  0.00     0.011 A 
ATOM     24 Br1   11 d          -6.592 209.218 113.429  0.00  0.00    -0.051 Br
ATOM     25  C16  11 d          -8.947 209.095 115.113  0.00  0.00     0.021 A 
ATOM     26  C17  11 d         -10.280 208.782 115.420  0.00  0.00     0.030 A 
ENDBRANCH  18  20
ENDBRANCH   1  18
TORSDOF 6
ENDMDL
MODEL 2
REMARK VINA RESULT:      -8.1      2.461      4.499
REMARK  6 active torsions:
REMARK  status: ('A' for Active; 'I' for Inactive)
REMARK    1  A    between atoms: C1_1  and  C9_10 
REMARK    2  A    between atoms: C9_10  and  P1_11 
REMARK    3  A    between atoms: C9_10  and  N2_17 
REMARK    4  A    between atoms: P1_11  and  O2_13 
REMARK    5  A    between atoms: P1_11  and  O3_15 
REMARK    6  A    between atoms: N2_17  and  C12_18 
ROOT
ATOM      1  C9   11 d         -12.868 207.727 112.973  0.00  0.00     0.236 C 
ENDROOT
BRANCH   1   2
ATOM      2  C1   11 d         -13.401 207.878 114.387  0.00  0.00     0.004 A 
ATOM      3  C2   11 d         -13.271 206.985 115.445  0.00  0.00     0.001 A 
ATOM      4  C3   11 d         -13.916 207.534 116.540  0.00  0.00     0.043 A 
ATOM      5  C7   11 d         -12.632 205.737 115.534  0.00  0.00     0.014 A 
ATOM      6  C4   11 d         -13.962 206.877 117.774  0.00  0.00     0.030 A 
ATOM      7  N1   11 d         -14.437 208.723 116.190  0.00  0.00    -0.365 N 
ATOM      8  C5   11 d         -13.326 205.624 117.883  0.00  0.00     0.002 A 
ATOM      9  C6   11 d         -12.666 205.058 116.769  0.00  0.00     0.001 A 
ATOM     10  C8   11 d         -14.139 208.955 114.892  0.00  0.00     0.099 A 
ATOM     11  H5   11 d         -14.982 209.365 116.818  0.00  0.00     0.165 HD
ENDBRANCH   1   2
BRANCH   1  12
ATOM     12  P1   11 d         -13.948 206.788 112.068  0.00  0.00     0.355 P 
ATOM     13  O1   11 d         -13.728 205.398 112.364  0.00  0.00    -0.256 OA
BRANCH  12  14
ATOM     14  O2   11 d         -13.687 207.048 110.489  0.00  0.00    -0.317 OA
ATOM     15  C10  11 d         -14.929 207.358 109.807  0.00  0.00     0.212 C 
ENDBRANCH  12  14
BRANCH  12  16
ATOM     16  O3   11 d         -15.485 207.198 112.402  0.00  0.00    -0.317 OA
ATOM     17  C11  11 d         -16.240 206.088 112.952  0.00  0.00     0.212 C 
ENDBRANCH  12  16
ENDBRANCH   1  12
BRANCH   1  18
ATOM     18  N2   11 d         -11.539 207.189 113.002  0.00  0.00    -0.371 N 
ATOM     19  H14  11 d         -11.398 206.245 112.712  0.00  0.00     0.161 HD
BRANCH  18  20
ATOM     20  C12  11 d         -10.407 207.888 113.409  0.00  0.00     0.029 A 
ATOM     21  C13  11 d          -9.380 208.119 112.472  0.00  0.00     0.030 A 
ATOM     22  C14  11 d          -8.215 208.809 112.843  0.00  0.00     0.021 A 
ATOM     23  C15  11 d          -8.060 209.269 114.158  0.00  0.00     0.011 A 
ATOM     24 Br1   11 d          -6.458 210.215 114.669  0.00  0.00    -0.051 Br
ATOM     25  C16  11 d          -9.069 209.035 115.104  0.00  0.00     0.021 A 
ATOM     26  C17  11 d         -10.233 208.344 114.735  0.00  0.00     0.030 A 
ENDBRANCH  18  20
ENDBRANCH   1  18
TORSDOF 6
ENDMDL
MODEL 3
REMARK VINA RESULT:      -7.7      3.281      6.007
REMARK  6 active torsions:
REMARK  status: ('A' for Active; 'I' for Inactive)
REMARK    1  A    between atoms: C1_1  and  C9_10 
REMARK    2  A    between atoms: C9_10  and  P1_11 
REMARK    3  A    between atoms: C9_10  and  N2_17 
REMARK    4  A    between atoms: P1_11  and  O2_13 
REMARK    5  A    between atoms: P1_11  and  O3_15 
REMARK    6  A    between atoms: N2_17  and  C12_18 
ROOT
ATOM      1  C9   11 d         -13.314 206.431 113.199  0.00  0.00     0.236 C 
ENDROOT
BRANCH   1   2
ATOM      2  C1   11 d         -12.146 207.039 112.440  0.00  0.00     0.004 A 
ATOM      3  C2   11 d         -11.096 207.791 112.956  0.00  0.00     0.001 A 
ATOM      4  C3   11 d         -10.270 208.137 111.900  0.00  0.00     0.043 A 
ATOM      5  C7   11 d         -10.798 208.192 114.269  0.00  0.00     0.014 A 
ATOM      6  C4   11 d          -9.111 208.898 112.090  0.00  0.00     0.030 A 
ATOM      7  N1   11 d         -10.778 207.631 110.763  0.00  0.00    -0.365 N 
ATOM      8  C5   11 d          -8.795 209.309 113.400  0.00  0.00     0.002 A 
ATOM      9  C6   11 d          -9.634 208.959 114.483  0.00  0.00     0.001 A 
ATOM     10  C8   11 d         -11.914 206.961 111.063  0.00  0.00     0.099 A 
ATOM     11  H5   11 d         -10.363 207.735 109.803  0.00  0.00     0.165 HD
ENDBRANCH   1   2
BRANCH   1  12
ATOM     12  P1   11 d         -14.603 206.181 112.132  0.00  0.00     0.355 P 
ATOM     13  O1   11 d         -14.256 205.135 111.208  0.00  0.00    -0.256 OA
BRANCH  12  14
ATOM     14  O2   11 d         -14.888 207.550 111.310  0.00  0.00    -0.317 OA
ATOM     15  C10  11 d         -15.053 207.275 109.895  0.00  0.00     0.212 C 
ENDBRANCH  12  14
BRANCH  12  16
ATOM     16  O3   11 d         -15.955 205.788 112.945  0.00  0.00    -0.317 OA
ATOM     17  C11  11 d         -17.130 205.812 112.094  0.00  0.00     0.212 C 
ENDBRANCH  12  16
ENDBRANCH   1  12
BRANCH   1  18
ATOM     18  N2   11 d         -13.659 207.259 114.318  0.00  0.00    -0.371 N 
ATOM     19  H14  11 d         -13.853 208.224 114.157  0.00  0.00     0.161 HD
BRANCH  18  20
ATOM     20  C12  11 d         -13.746 206.820 115.635  0.00  0.00     0.029 A 
ATOM     21  C13  11 d         -13.583 207.758 116.674  0.00  0.00     0.030 A 
ATOM     22  C14  11 d         -13.651 207.356 118.018  0.00  0.00     0.021 A 
ATOM     23  C15  11 d         -13.873 206.009 118.338  0.00  0.00     0.011 A 
ATOM     24 Br1   11 d         -13.963 205.456 120.184  0.00  0.00    -0.051 Br
ATOM     25  C16  11 d         -14.025 205.063 117.313  0.00  0.00     0.021 A 
ATOM     26  C17  11 d         -13.956 205.464 115.970  0.00  0.00     0.030 A 
ENDBRANCH  18  20
ENDBRANCH   1  18
TORSDOF 6
ENDMDL
MODEL 4
REMARK VINA RESULT:      -7.6      3.470      5.659
REMARK  6 active torsions:
REMARK  status: ('A' for Active; 'I' for Inactive)
REMARK    1  A    between atoms: C1_1  and  C9_10 
REMARK    2  A    between atoms: C9_10  and  P1_11 
REMARK    3  A    between atoms: C9_10  and  N2_17 
REMARK    4  A    between atoms: P1_11  and  O2_13 
REMARK    5  A    between atoms: P1_11  and  O3_15 
REMARK    6  A    between atoms: N2_17  and  C12_18 
ROOT
ATOM      1  C9   11 d         -13.518 206.399 115.643  0.00  0.00     0.236 C 
ENDROOT
BRANCH   1   2
ATOM      2  C1   11 d         -13.317 206.365 114.137  0.00  0.00     0.004 A 
ATOM      3  C2   11 d         -14.292 206.427 113.147  0.00  0.00     0.001 A 
ATOM      4  C3   11 d         -13.651 206.358 111.922  0.00  0.00     0.043 A 
ATOM      5  C7   11 d         -15.690 206.546 113.227  0.00  0.00     0.014 A 
ATOM      6  C4   11 d         -14.360 206.401 110.717  0.00  0.00     0.030 A 
ATOM      7  N1   11 d         -12.327 206.251 112.126  0.00  0.00    -0.365 N 
ATOM      8  C5   11 d         -15.763 206.520 110.776  0.00  0.00     0.002 A 
ATOM      9  C6   11 d         -16.423 206.592 112.023  0.00  0.00     0.001 A 
ATOM     10  C8   11 d         -12.098 206.253 113.459  0.00  0.00     0.099 A 
ATOM     11  H5   11 d         -11.592 206.180 111.379  0.00  0.00     0.165 HD
ENDBRANCH   1   2
BRANCH   1  12
ATOM     12  P1   11 d         -12.430 207.500 116.326  0.00  0.00     0.355 P 
ATOM     13  O1   11 d         -13.029 208.097 117.489  0.00  0.00    -0.256 OA
BRANCH  12  14
ATOM     14  O2   11 d         -12.092 208.658 115.242  0.00  0.00    -0.317 OA
ATOM     15  C10  11 d         -10.705 209.071 115.347  0.00  0.00     0.212 C 
ENDBRANCH  12  14
BRANCH  12  16
ATOM     16  O3   11 d         -11.039 206.760 116.727  0.00  0.00    -0.317 OA
ATOM     17  C11  11 d         -10.802 206.780 118.158  0.00  0.00     0.212 C 
ENDBRANCH  12  16
ENDBRANCH   1  12
BRANCH   1  18
ATOM     18  N2   11 d         -13.401 205.077 116.186  0.00  0.00    -0.371 N 
ATOM     19  H14  11 d         -12.714 204.463 115.805  0.00  0.00     0.161 HD
BRANCH  18  20
ATOM     20  C12  11 d         -14.181 204.570 117.220  0.00  0.00     0.029 A 
ATOM     21  C13  11 d         -15.120 203.561 116.928  0.00  0.00     0.030 A 
ATOM     22  C14  11 d         -15.938 203.030 117.938  0.00  0.00     0.021 A 
ATOM     23  C15  11 d         -15.832 203.508 119.252  0.00  0.00     0.011 A 
ATOM     24 Br1   11 d         -16.956 202.782 120.640  0.00  0.00    -0.051 Br
ATOM     25  C16  11 d         -14.910 204.522 119.554  0.00  0.00     0.021 A 
ATOM     26  C17  11 d         -14.094 205.055 118.544  0.00  0.00     0.030 A 
ENDBRANCH  18  20
ENDBRANCH   1  18
TORSDOF 6
ENDMDL
MODEL 5
REMARK VINA RESULT:      -7.6      3.121      6.132
REMARK  6 active torsions:
REMARK  status: ('A' for Active; 'I' for Inactive)
REMARK    1  A    between atoms: C1_1  and  C9_10 
REMARK    2  A    between atoms: C9_10  and  P1_11 
REMARK    3  A    between atoms: C9_10  and  N2_17 
REMARK    4  A    between atoms: P1_11  and  O2_13 
REMARK    5  A    between atoms: P1_11  and  O3_15 
REMARK    6  A    between atoms: N2_17  and  C12_18 
ROOT
ATOM      1  C9   11 d         -13.161 206.120 117.320  0.00  0.00     0.236 C 
ENDROOT
BRANCH   1   2
ATOM      2  C1   11 d         -13.949 205.481 118.452  0.00  0.00     0.004 A 
ATOM      3  C2   11 d         -14.743 204.341 118.397  0.00  0.00     0.001 A 
ATOM      4  C3   11 d         -15.268 204.135 119.661  0.00  0.00     0.043 A 
ATOM      5  C7   11 d         -15.039 203.465 117.339  0.00  0.00     0.014 A 
ATOM      6  C4   11 d         -16.113 203.055 119.940  0.00  0.00     0.030 A 
ATOM      7  N1   11 d         -14.831 205.106 120.481  0.00  0.00    -0.365 N 
ATOM      8  C5   11 d         -16.422 202.166 118.892  0.00  0.00     0.002 A 
ATOM      9  C6   11 d         -15.888 202.370 117.599  0.00  0.00     0.001 A 
ATOM     10  C8   11 d         -14.030 205.934 119.773  0.00  0.00     0.099 A 
ATOM     11  H5   11 d         -15.068 205.205 121.499  0.00  0.00     0.165 HD
ENDBRANCH   1   2
BRANCH   1  12
ATOM     12  P1   11 d         -11.715 206.750 117.934  0.00  0.00     0.355 P 
ATOM     13  O1   11 d         -11.985 208.001 118.590  0.00  0.00    -0.256 OA
BRANCH  12  14
ATOM     14  O2   11 d         -10.680 206.998 116.711  0.00  0.00    -0.317 OA
ATOM     15  C10  11 d         -10.418 208.415 116.539  0.00  0.00     0.212 C 
ENDBRANCH  12  14
BRANCH  12  16
ATOM     16  O3   11 d         -11.029 205.706 118.975  0.00  0.00    -0.317 OA
ATOM     17  C11  11 d          -9.900 206.293 119.673  0.00  0.00     0.212 C 
ENDBRANCH  12  16
ENDBRANCH   1  12
BRANCH   1  18
ATOM     18  N2   11 d         -13.966 207.100 116.651  0.00  0.00    -0.371 N 
ATOM     19  H14  11 d         -14.309 207.876 117.175  0.00  0.00     0.161 HD
BRANCH  18  20
ATOM     20  C12  11 d         -14.315 207.057 115.305  0.00  0.00     0.029 A 
ATOM     21  C13  11 d         -15.289 206.129 114.887  0.00  0.00     0.030 A 
ATOM     22  C14  11 d         -15.662 206.043 113.536  0.00  0.00     0.021 A 
ATOM     23  C15  11 d         -15.059 206.879 112.586  0.00  0.00     0.011 A 
ATOM     24 Br1   11 d         -15.569 206.759 110.730  0.00  0.00    -0.051 Br
ATOM     25  C16  11 d         -14.078 207.799 112.987  0.00  0.00     0.021 A 
ATOM     26  C17  11 d         -13.703 207.884 114.336  0.00  0.00     0.030 A 
ENDBRANCH  18  20
ENDBRANCH   1  18
TORSDOF 6
ENDMDL
MODEL 6
REMARK VINA RESULT:      -7.6      2.998      5.881
REMARK  6 active torsions:
REMARK  status: ('A' for Active; 'I' for Inactive)
REMARK    1  A    between atoms: C1_1  and  C9_10 
REMARK    2  A    between atoms: C9_10  and  P1_11 
REMARK    3  A    between atoms: C9_10  and  N2_17 
REMARK    4  A    between atoms: P1_11  and  O2_13 
REMARK    5  A    between atoms: P1_11  and  O3_15 
REMARK    6  A    between atoms: N2_17  and  C12_18 
ROOT
ATOM      1  C9   11 d         -11.573 207.718 116.361  0.00  0.00     0.236 C 
ENDROOT
BRANCH   1   2
ATOM      2  C1   11 d         -10.171 208.167 115.985  0.00  0.00     0.004 A 
ATOM      3  C2   11 d          -9.697 208.509 114.723  0.00  0.00     0.001 A 
ATOM      4  C3   11 d          -8.362 208.848 114.854  0.00  0.00     0.043 A 
ATOM      5  C7   11 d         -10.336 208.553 113.472  0.00  0.00     0.014 A 
ATOM      6  C4   11 d          -7.592 209.247 113.755  0.00  0.00     0.030 A 
ATOM      7  N1   11 d          -8.001 208.723 116.143  0.00  0.00    -0.365 N 
ATOM      8  C5   11 d          -8.215 209.299 112.492  0.00  0.00     0.002 A 
ATOM      9  C6   11 d          -9.579 208.954 112.352  0.00  0.00     0.001 A 
ATOM     10  C8   11 d          -9.079 208.312 116.849  0.00  0.00     0.099 A 
ATOM     11  H5   11 d          -7.047 208.913 116.537  0.00  0.00     0.165 HD
ENDBRANCH   1   2
BRANCH   1  12
ATOM     12  P1   11 d         -11.679 207.575 118.044  0.00  0.00     0.355 P 
ATOM     13  O1   11 d         -10.786 208.521 118.657  0.00  0.00    -0.256 OA
BRANCH  12  14
ATOM     14  O2   11 d         -11.249 206.073 118.479  0.00  0.00    -0.317 OA
ATOM     15  C10  11 d         -10.291 206.108 119.568  0.00  0.00     0.212 C 
ENDBRANCH  12  14
BRANCH  12  16
ATOM     16  O3   11 d         -13.203 207.831 118.549  0.00  0.00    -0.317 OA
ATOM     17  C11  11 d         -13.852 206.605 118.975  0.00  0.00     0.212 C 
ENDBRANCH  12  16
ENDBRANCH   1  12
BRANCH   1  18
ATOM     18  N2   11 d         -11.906 206.508 115.669  0.00  0.00    -0.371 N 
ATOM     19  H14  11 d         -11.335 205.703 115.811  0.00  0.00     0.161 HD
BRANCH  18  20
ATOM     20  C12  11 d         -12.980 206.361 114.797  0.00  0.00     0.029 A 
ATOM     21  C13  11 d         -14.288 206.416 115.318  0.00  0.00     0.030 A 
ATOM     22  C14  11 d         -15.401 206.260 114.477  0.00  0.00     0.021 A 
ATOM     23  C15  11 d         -15.219 206.038 113.104  0.00  0.00     0.011 A 
ATOM     24 Br1   11 d         -16.747 205.821 111.948  0.00  0.00    -0.051 Br
ATOM     25  C16  11 d         -13.921 205.969 112.574  0.00  0.00     0.021 A 
ATOM     26  C17  11 d         -12.808 206.124 113.415  0.00  0.00     0.030 A 
ENDBRANCH  18  20
ENDBRANCH   1  18
TORSDOF 6
ENDMDL
MODEL 7
REMARK VINA RESULT:      -7.3      5.444      8.584
REMARK  6 active torsions:
REMARK  status: ('A' for Active; 'I' for Inactive)
REMARK    1  A    between atoms: C1_1  and  C9_10 
REMARK    2  A    between atoms: C9_10  and  P1_11 
REMARK    3  A    between atoms: C9_10  and  N2_17 
REMARK    4  A    between atoms: P1_11  and  O2_13 
REMARK    5  A    between atoms: P1_11  and  O3_15 
REMARK    6  A    between atoms: N2_17  and  C12_18 
ROOT
ATOM      1  C9   11 d          -6.838 208.997 115.626  0.00  0.00     0.236 C 
ENDROOT
BRANCH   1   2
ATOM      2  C1   11 d          -6.934 208.070 116.826  0.00  0.00     0.004 A 
ATOM      3  C2   11 d          -6.080 207.024 117.163  0.00  0.00     0.001 A 
ATOM      4  C3   11 d          -6.556 206.455 118.331  0.00  0.00     0.043 A 
ATOM      5  C7   11 d          -4.921 206.534 116.538  0.00  0.00     0.014 A 
ATOM      6  C4   11 d          -5.910 205.372 118.938  0.00  0.00     0.030 A 
ATOM      7  N1   11 d          -7.666 207.107 118.717  0.00  0.00    -0.365 N 
ATOM      8  C5   11 d          -4.746 204.866 118.328  0.00  0.00     0.002 A 
ATOM      9  C6   11 d          -4.255 205.444 117.134  0.00  0.00     0.001 A 
ATOM     10  C8   11 d          -7.916 208.090 117.822  0.00  0.00     0.099 A 
ATOM     11  H5   11 d          -8.242 206.893 119.568  0.00  0.00     0.165 HD
ENDBRANCH   1   2
BRANCH   1  12
ATOM     12  P1   11 d          -5.715 210.219 115.955  0.00  0.00     0.355 P 
ATOM     13  O1   11 d          -6.144 211.438 115.323  0.00  0.00    -0.256 OA
BRANCH  12  14
ATOM     14  O2   11 d          -4.269 209.788 115.361  0.00  0.00    -0.317 OA
ATOM     15  C10  11 d          -4.351 209.544 113.933  0.00  0.00     0.212 C 
ENDBRANCH  12  14
BRANCH  12  16
ATOM     16  O3   11 d          -5.559 210.441 117.558  0.00  0.00    -0.317 OA
ATOM     17  C11  11 d          -4.225 210.116 118.027  0.00  0.00     0.212 C 
ENDBRANCH  12  16
ENDBRANCH   1  12
BRANCH   1  18
ATOM     18  N2   11 d          -8.138 209.500 115.287  0.00  0.00    -0.371 N 
ATOM     19  H14  11 d          -8.472 210.314 115.755  0.00  0.00     0.161 HD
BRANCH  18  20
ATOM     20  C12  11 d          -8.987 208.934 114.341  0.00  0.00     0.029 A 
ATOM     21  C13  11 d          -8.581 208.914 112.992  0.00  0.00     0.030 A 
ATOM     22  C14  11 d          -9.412 208.366 112.003  0.00  0.00     0.021 A 
ATOM     23  C15  11 d         -10.664 207.837 112.350  0.00  0.00     0.011 A 
ATOM     24 Br1   11 d         -11.807 207.086 110.991  0.00  0.00    -0.051 Br
ATOM     25  C16  11 d         -11.086 207.862 113.688  0.00  0.00     0.021 A 
ATOM     26  C17  11 d         -10.256 208.412 114.677  0.00  0.00     0.030 A 
ENDBRANCH  18  20
ENDBRANCH   1  18
TORSDOF 6
ENDMDL
MODEL 8
REMARK VINA RESULT:      -7.3      2.016      3.048
REMARK  6 active torsions:
REMARK  status: ('A' for Active; 'I' for Inactive)
REMARK    1  A    between atoms: C1_1  and  C9_10 
REMARK    2  A    between atoms: C9_10  and  P1_11 
REMARK    3  A    between atoms: C9_10  and  N2_17 
REMARK    4  A    between atoms: P1_11  and  O2_13 
REMARK    5  A    between atoms: P1_11  and  O3_15 
REMARK    6  A    between atoms: N2_17  and  C12_18 
ROOT
ATOM      1  C9   11 d         -10.674 207.855 115.491  0.00  0.00     0.236 C 
ENDROOT
BRANCH   1   2
ATOM      2  C1   11 d         -12.026 207.952 114.806  0.00  0.00     0.004 A 
ATOM      3  C2   11 d         -12.387 207.449 113.560  0.00  0.00     0.001 A 
ATOM      4  C3   11 d         -13.714 207.777 113.344  0.00  0.00     0.043 A 
ATOM      5  C7   11 d         -11.655 206.725 112.605  0.00  0.00     0.014 A 
ATOM      6  C4   11 d         -14.382 207.406 112.171  0.00  0.00     0.030 A 
ATOM      7  N1   11 d         -14.175 208.463 114.404  0.00  0.00    -0.365 N 
ATOM      8  C5   11 d         -13.665 206.679 111.201  0.00  0.00     0.002 A 
ATOM      9  C6   11 d         -12.310 206.341 111.416  0.00  0.00     0.001 A 
ATOM     10  C8   11 d         -13.172 208.582 115.304  0.00  0.00     0.099 A 
ATOM     11  H5   11 d         -15.148 208.841 114.517  0.00  0.00     0.165 HD
ENDBRANCH   1   2
BRANCH   1  12
ATOM     12  P1   11 d         -10.905 207.530 117.136  0.00  0.00     0.355 P 
ATOM     13  O1   11 d         -11.271 208.747 117.811  0.00  0.00    -0.256 OA
BRANCH  12  14
ATOM     14  O2   11 d          -9.523 206.962 117.767  0.00  0.00    -0.317 OA
ATOM     15  C10  11 d          -9.089 207.786 118.879  0.00  0.00     0.212 C 
ENDBRANCH  12  14
BRANCH  12  16
ATOM     16  O3   11 d         -12.058 206.403 117.344  0.00  0.00    -0.317 OA
ATOM     17  C11  11 d         -12.856 206.650 118.530  0.00  0.00     0.212 C 
ENDBRANCH  12  16
ENDBRANCH   1  12
BRANCH   1  18
ATOM     18  N2   11 d          -9.913 209.046 115.251  0.00  0.00    -0.371 N 
ATOM     19  H14  11 d         -10.345 209.930 115.413  0.00  0.00     0.161 HD
BRANCH  18  20
ATOM     20  C12  11 d          -8.596 209.072 114.803  0.00  0.00     0.029 A 
ATOM     21  C13  11 d          -8.353 209.076 113.415  0.00  0.00     0.030 A 
ATOM     22  C14  11 d          -7.040 209.088 112.918  0.00  0.00     0.021 A 
ATOM     23  C15  11 d          -5.953 209.088 113.805  0.00  0.00     0.011 A 
ATOM     24 Br1   11 d          -4.149 209.102 113.123  0.00  0.00    -0.051 Br
ATOM     25  C16  11 d          -6.181 209.071 115.189  0.00  0.00     0.021 A 
ATOM     26  C17  11 d          -7.493 209.057 115.686  0.00  0.00     0.030 A 
ENDBRANCH  18  20
ENDBRANCH   1  18
TORSDOF 6
ENDMDL
MODEL 9
REMARK VINA RESULT:      -7.2      5.208      7.960
REMARK  6 active torsions:
REMARK  status: ('A' for Active; 'I' for Inactive)
REMARK    1  A    between atoms: C1_1  and  C9_10 
REMARK    2  A    between atoms: C9_10  and  P1_11 
REMARK    3  A    between atoms: C9_10  and  N2_17 
REMARK    4  A    between atoms: P1_11  and  O2_13 
REMARK    5  A    between atoms: P1_11  and  O3_15 
REMARK    6  A    between atoms: N2_17  and  C12_18 
ROOT
ATOM      1  C9   11 d         -14.698 204.591 120.925  0.00  0.00     0.236 C 
ENDROOT
BRANCH   1   2
ATOM      2  C1   11 d         -16.010 205.357 120.924  0.00  0.00     0.004 A 
ATOM      3  C2   11 d         -17.300 204.835 120.884  0.00  0.00     0.001 A 
ATOM      4  C3   11 d         -18.183 205.901 120.895  0.00  0.00     0.043 A 
ATOM      5  C7   11 d         -17.764 203.510 120.843  0.00  0.00     0.014 A 
ATOM      6  C4   11 d         -19.569 205.709 120.867  0.00  0.00     0.030 A 
ATOM      7  N1   11 d         -17.485 207.049 120.937  0.00  0.00    -0.365 N 
ATOM      8  C5   11 d         -20.055 204.387 120.827  0.00  0.00     0.002 A 
ATOM      9  C6   11 d         -19.158 203.295 120.814  0.00  0.00     0.001 A 
ATOM     10  C8   11 d         -16.167 206.747 120.955  0.00  0.00     0.099 A 
ATOM     11  H5   11 d         -17.892 208.017 120.954  0.00  0.00     0.165 HD
ENDBRANCH   1   2
BRANCH   1  12
ATOM     12  P1   11 d         -14.085 204.539 122.502  0.00  0.00     0.355 P 
ATOM     13  O1   11 d         -15.177 204.432 123.431  0.00  0.00    -0.256 OA
BRANCH  12  14
ATOM     14  O2   11 d         -13.260 205.903 122.798  0.00  0.00    -0.317 OA
ATOM     15  C10  11 d         -13.829 206.612 123.928  0.00  0.00     0.212 C 
ENDBRANCH  12  14
BRANCH  12  16
ATOM     16  O3   11 d         -13.069 203.282 122.682  0.00  0.00    -0.317 OA
ATOM     17  C11  11 d         -11.728 203.710 123.034  0.00  0.00     0.212 C 
ENDBRANCH  12  16
ENDBRANCH   1  12
BRANCH   1  18
ATOM     18  N2   11 d         -13.788 205.172 119.983  0.00  0.00    -0.371 N 
ATOM     19  H14  11 d         -12.915 205.522 120.314  0.00  0.00     0.161 HD
BRANCH  18  20
ATOM     20  C12  11 d         -14.025 205.291 118.617  0.00  0.00     0.029 A 
ATOM     21  C13  11 d         -13.791 206.534 117.995  0.00  0.00     0.030 A 
ATOM     22  C14  11 d         -14.030 206.702 116.622  0.00  0.00     0.021 A 
ATOM     23  C15  11 d         -14.514 205.632 115.856  0.00  0.00     0.011 A 
ATOM     24 Br1   11 d         -14.845 205.864 113.970  0.00  0.00    -0.051 Br
ATOM     25  C16  11 d         -14.763 204.393 116.466  0.00  0.00     0.021 A 
ATOM     26  C17  11 d         -14.526 204.224 117.838  0.00  0.00     0.030 A 
ENDBRANCH  18  20
ENDBRANCH   1  18
TORSDOF 6
ENDMDL
MODEL 10
REMARK VINA RESULT:      -6.9      6.139      9.294
REMARK  6 active torsions:
REMARK  status: ('A' for Active; 'I' for Inactive)
REMARK    1  A    between atoms: C1_1  and  C9_10 
REMARK    2  A    between atoms: C9_10  and  P1_11 
REMARK    3  A    between atoms: C9_10  and  N2_17 
REMARK    4  A    between atoms: P1_11  and  O2_13 
REMARK    5  A    between atoms: P1_11  and  O3_15 
REMARK    6  A    between atoms: N2_17  and  C12_18 
ROOT
ATOM      1  C9   11 d          -5.725 208.796 114.711  0.00  0.00     0.236 C 
ENDROOT
BRANCH   1   2
ATOM      2  C1   11 d          -5.802 209.293 116.145  0.00  0.00     0.004 A 
ATOM      3  C2   11 d          -6.020 208.540 117.295  0.00  0.00     0.001 A 
ATOM      4  C3   11 d          -6.015 209.410 118.372  0.00  0.00     0.043 A 
ATOM      5  C7   11 d          -6.215 207.161 117.479  0.00  0.00     0.014 A 
ATOM      6  C4   11 d          -6.205 208.959 119.683  0.00  0.00     0.030 A 
ATOM      7  N1   11 d          -5.808 210.660 117.925  0.00  0.00    -0.365 N 
ATOM      8  C5   11 d          -6.402 207.579 119.888  0.00  0.00     0.002 A 
ATOM      9  C6   11 d          -6.407 206.686 118.792  0.00  0.00     0.001 A 
ATOM     10  C8   11 d          -5.676 210.617 116.580  0.00  0.00     0.099 A 
ATOM     11  H5   11 d          -5.756 211.526 118.517  0.00  0.00     0.165 HD
ENDBRANCH   1   2
BRANCH   1  12
ATOM     12  P1   11 d          -4.135 208.950 114.153  0.00  0.00     0.355 P 
ATOM     13  O1   11 d          -3.988 210.215 113.485  0.00  0.00    -0.256 OA
BRANCH  12  14
ATOM     14  O2   11 d          -3.818 207.752 113.108  0.00  0.00    -0.317 OA
ATOM     15  C10  11 d          -3.516 208.283 111.792  0.00  0.00     0.212 C 
ENDBRANCH  12  14
BRANCH  12  16
ATOM     16  O3   11 d          -3.080 208.840 115.385  0.00  0.00    -0.317 OA
ATOM     17  C11  11 d          -2.564 207.493 115.544  0.00  0.00     0.212 C 
ENDBRANCH  12  16
ENDBRANCH   1  12
BRANCH   1  18
ATOM     18  N2   11 d          -6.679 209.491 113.897  0.00  0.00    -0.371 N 
ATOM     19  H14  11 d          -6.448 210.401 113.560  0.00  0.00     0.161 HD
BRANCH  18  20
ATOM     20  C12  11 d          -7.926 208.993 113.532  0.00  0.00     0.029 A 
ATOM     21  C13  11 d          -8.162 208.684 112.178  0.00  0.00     0.030 A 
ATOM     22  C14  11 d          -9.409 208.191 111.763  0.00  0.00     0.021 A 
ATOM     23  C15  11 d         -10.438 208.008 112.697  0.00  0.00     0.011 A 
ATOM     24 Br1   11 d         -12.153 207.334 112.128  0.00  0.00    -0.051 Br
ATOM     25  C16  11 d         -10.221 208.324 114.047  0.00  0.00     0.021 A 
ATOM     26  C17  11 d          -8.975 208.818 114.462  0.00  0.00     0.030 A 
ENDBRANCH  18  20
ENDBRANCH   1  18
TORSDOF 6
ENDMDL
