MODEL 1
REMARK VINA RESULT:      -9.9      0.000      0.000
REMARK  5 active torsions:
REMARK  status: ('A' for Active; 'I' for Inactive)
REMARK    1  A    between atoms: C1_1  and  S1_2 
REMARK    2  A    between atoms: S1_2  and  N1_3 
REMARK    3  A    between atoms: N2_6  and  C4_7 
REMARK    4  A    between atoms: C4_7  and  C5_8 
REMARK    5  A    between atoms: C4_7  and  C11_14 
ROOT
ATOM      1  N1   11 d         -13.552 204.952 117.351  0.00  0.00    -0.203 NA
ATOM      2  C2   11 d         -12.222 204.785 116.712  0.00  0.00     0.135 C 
ATOM      3  C3   11 d         -11.789 206.048 115.962  0.00  0.00     0.251 C 
ATOM      4  N2   11 d         -12.825 206.614 115.010  0.00  0.00    -0.057 N 
ATOM      5  C17  11 d         -14.270 206.472 115.460  0.00  0.00     0.251 C 
ATOM      6  C18  11 d         -14.610 205.267 116.361  0.00  0.00     0.135 C 
ATOM      7  H5   11 d         -12.644 207.669 115.102  0.00  0.00     0.281 HD
ENDROOT
BRANCH   4   8
ATOM      8  C4   11 d         -12.514 206.333 113.538  0.00  0.00     0.254 C 
BRANCH   8   9
ATOM      9  C5   11 d         -11.396 207.232 112.977  0.00  0.00    -0.023 A 
ATOM     10  C6   11 d         -10.529 208.012 113.785  0.00  0.00     0.009 A 
ATOM     11  C7   11 d          -9.512 208.791 113.215  0.00  0.00     0.001 A 
ATOM     12  C8   11 d          -9.348 208.828 111.826  0.00  0.00     0.000 A 
ATOM     13  C9   11 d         -10.214 208.099 111.005  0.00  0.00     0.001 A 
ATOM     14  C10  11 d         -11.231 207.318 111.571  0.00  0.00     0.009 A 
ENDBRANCH   8   9
BRANCH   8  15
ATOM     15  C11  11 d         -13.794 206.291 112.696  0.00  0.00    -0.023 A 
ATOM     16  C12  11 d         -14.418 207.505 112.321  0.00  0.00     0.009 A 
ATOM     17  C13  11 d         -15.564 207.506 111.513  0.00  0.00     0.001 A 
ATOM     18  C14  11 d         -16.116 206.296 111.075  0.00  0.00     0.000 A 
ATOM     19  C15  11 d         -15.530 205.084 111.458  0.00  0.00     0.001 A 
ATOM     20  C16  11 d         -14.384 205.080 112.266  0.00  0.00     0.009 A 
ENDBRANCH   8  15
ENDBRANCH   4   8
BRANCH   1  21
ATOM     21  S1   11 d         -13.564 206.034 118.752  0.00  0.00     0.243 S 
ATOM     22  O1   11 d         -12.184 206.018 119.411  0.00  0.00    -0.206 OA
ATOM     23  O2   11 d         -13.818 207.474 118.295  0.00  0.00    -0.206 OA
BRANCH  21  24
ATOM     24  C1   11 d         -14.806 205.537 119.954  0.00  0.00     0.074 A 
ATOM     25  C19  11 d         -15.390 206.476 120.821  0.00  0.00     0.025 A 
ATOM     26  C20  11 d         -16.385 206.076 121.726  0.00  0.00     0.008 A 
ATOM     27  C21  11 d         -16.787 204.729 121.795  0.00  0.00    -0.062 A 
ATOM     28  C22  11 d         -16.217 203.797 120.906  0.00  0.00     0.008 A 
ATOM     29  C24  11 d         -17.930 204.325 122.685  0.00  0.00     0.048 C 
ATOM     30  C23  11 d         -15.221 204.195 120.003  0.00  0.00     0.025 A 
ENDBRANCH  21  24
ENDBRANCH   1  21
TORSDOF 5
ENDMDL
MODEL 2
REMARK VINA RESULT:      -9.1      1.145      3.838
REMARK  5 active torsions:
REMARK  status: ('A' for Active; 'I' for Inactive)
REMARK    1  A    between atoms: C1_1  and  S1_2 
REMARK    2  A    between atoms: S1_2  and  N1_3 
REMARK    3  A    between atoms: N2_6  and  C4_7 
REMARK    4  A    between atoms: C4_7  and  C5_8 
REMARK    5  A    between atoms: C4_7  and  C11_14 
ROOT
ATOM      1  N1   11 d         -13.059 207.422 117.878  0.00  0.00    -0.203 NA
ATOM      2  C2   11 d         -14.211 207.365 116.943  0.00  0.00     0.135 C 
ATOM      3  C3   11 d         -13.913 206.479 115.729  0.00  0.00     0.251 C 
ATOM      4  N2   11 d         -12.604 206.780 115.024  0.00  0.00    -0.057 N 
ATOM      5  C17  11 d         -11.462 207.216 115.927  0.00  0.00     0.251 C 
ATOM      6  C18  11 d         -11.839 207.955 117.227  0.00  0.00     0.135 C 
ATOM      7  H5   11 d         -12.303 205.798 114.708  0.00  0.00     0.281 HD
ENDROOT
BRANCH   4   8
ATOM      8  C4   11 d         -12.785 207.532 113.703  0.00  0.00     0.254 C 
BRANCH   8   9
ATOM      9  C5   11 d         -13.813 206.867 112.768  0.00  0.00    -0.023 A 
ATOM     10  C6   11 d         -13.761 205.503 112.378  0.00  0.00     0.009 A 
ATOM     11  C7   11 d         -14.743 204.949 111.544  0.00  0.00     0.001 A 
ATOM     12  C8   11 d         -15.788 205.745 111.063  0.00  0.00     0.000 A 
ATOM     13  C9   11 d         -15.842 207.100 111.401  0.00  0.00     0.001 A 
ATOM     14  C10  11 d         -14.862 207.658 112.235  0.00  0.00     0.009 A 
ENDBRANCH   8   9
BRANCH   8  15
ATOM     15  C11  11 d         -11.434 207.853 113.054  0.00  0.00    -0.023 A 
ATOM     16  C12  11 d         -11.263 207.638 111.666  0.00  0.00     0.009 A 
ATOM     17  C13  11 d         -10.055 207.963 111.031  0.00  0.00     0.001 A 
ATOM     18  C14  11 d          -8.994 208.497 111.772  0.00  0.00     0.000 A 
ATOM     19  C15  11 d          -9.134 208.692 113.151  0.00  0.00     0.001 A 
ATOM     20  C16  11 d         -10.340 208.367 113.788  0.00  0.00     0.009 A 
ENDBRANCH   8  15
ENDBRANCH   4   8
BRANCH   1  21
ATOM     21  S1   11 d         -12.770 205.928 118.783  0.00  0.00     0.243 S 
ATOM     22  O1   11 d         -12.272 204.848 117.821  0.00  0.00    -0.206 OA
ATOM     23  O2   11 d         -11.657 206.150 119.812  0.00  0.00    -0.206 OA
BRANCH  21  24
ATOM     24  C1   11 d         -14.266 205.355 119.600  0.00  0.00     0.074 A 
ATOM     25  C19  11 d         -14.848 206.095 120.643  0.00  0.00     0.025 A 
ATOM     26  C20  11 d         -16.038 205.653 121.242  0.00  0.00     0.008 A 
ATOM     27  C21  11 d         -16.643 204.452 120.826  0.00  0.00    -0.062 A 
ATOM     28  C22  11 d         -16.069 203.728 119.762  0.00  0.00     0.008 A 
ATOM     29  C24  11 d         -17.973 204.038 121.391  0.00  0.00     0.048 C 
ATOM     30  C23  11 d         -14.880 204.169 119.164  0.00  0.00     0.025 A 
ENDBRANCH  21  24
ENDBRANCH   1  21
TORSDOF 5
ENDMDL
MODEL 3
REMARK VINA RESULT:      -8.1      4.078      8.032
REMARK  5 active torsions:
REMARK  status: ('A' for Active; 'I' for Inactive)
REMARK    1  A    between atoms: C1_1  and  S1_2 
REMARK    2  A    between atoms: S1_2  and  N1_3 
REMARK    3  A    between atoms: N2_6  and  C4_7 
REMARK    4  A    between atoms: C4_7  and  C5_8 
REMARK    5  A    between atoms: C4_7  and  C11_14 
ROOT
ATOM      1  N1   11 d         -11.963 208.014 116.281  0.00  0.00    -0.203 NA
ATOM      2  C2   11 d         -11.024 208.789 115.432  0.00  0.00     0.135 C 
ATOM      3  C3   11 d          -9.655 208.110 115.333  0.00  0.00     0.251 C 
ATOM      4  N2   11 d          -9.042 207.709 116.662  0.00  0.00    -0.057 N 
ATOM      5  C17  11 d         -10.029 207.248 117.722  0.00  0.00     0.251 C 
ATOM      6  C18  11 d         -11.451 207.841 117.662  0.00  0.00     0.135 C 
ATOM      7  H5   11 d          -8.531 206.803 116.395  0.00  0.00     0.281 HD
ENDROOT
BRANCH   4   8
ATOM      8  C4   11 d          -7.907 208.633 117.110  0.00  0.00     0.254 C 
BRANCH   8   9
ATOM      9  C5   11 d          -6.827 208.827 116.029  0.00  0.00    -0.023 A 
ATOM     10  C6   11 d          -6.026 207.775 115.513  0.00  0.00     0.009 A 
ATOM     11  C7   11 d          -5.077 208.012 114.509  0.00  0.00     0.001 A 
ATOM     12  C8   11 d          -4.887 209.305 114.010  0.00  0.00     0.000 A 
ATOM     13  C9   11 d          -5.636 210.366 114.527  0.00  0.00     0.001 A 
ATOM     14  C10  11 d          -6.588 210.134 115.531  0.00  0.00     0.009 A 
ENDBRANCH   8   9
BRANCH   8  15
ATOM     15  C11  11 d          -7.375 208.233 118.490  0.00  0.00    -0.023 A 
ATOM     16  C12  11 d          -6.796 206.954 118.667  0.00  0.00     0.009 A 
ATOM     17  C13  11 d          -6.259 206.572 119.905  0.00  0.00     0.001 A 
ATOM     18  C14  11 d          -6.299 207.454 120.991  0.00  0.00     0.000 A 
ATOM     19  C15  11 d          -6.892 208.714 120.844  0.00  0.00     0.001 A 
ATOM     20  C16  11 d          -7.431 209.098 119.608  0.00  0.00     0.009 A 
ENDBRANCH   8  15
ENDBRANCH   4   8
BRANCH   1  21
ATOM     21  S1   11 d         -12.536 206.504 115.557  0.00  0.00     0.243 S 
ATOM     22  O1   11 d         -11.402 205.477 115.573  0.00  0.00    -0.206 OA
ATOM     23  O2   11 d         -13.672 205.919 116.402  0.00  0.00    -0.206 OA
BRANCH  21  24
ATOM     24  C1   11 d         -13.089 206.756 113.864  0.00  0.00     0.074 A 
ATOM     25  C19  11 d         -12.230 206.506 112.779  0.00  0.00     0.025 A 
ATOM     26  C20  11 d         -12.692 206.671 111.465  0.00  0.00     0.008 A 
ATOM     27  C21  11 d         -14.005 207.114 111.218  0.00  0.00    -0.062 A 
ATOM     28  C22  11 d         -14.868 207.337 112.309  0.00  0.00     0.008 A 
ATOM     29  C24  11 d         -14.530 207.182 109.811  0.00  0.00     0.048 C 
ATOM     30  C23  11 d         -14.408 207.175 113.624  0.00  0.00     0.025 A 
ENDBRANCH  21  24
ENDBRANCH   1  21
TORSDOF 5
ENDMDL
MODEL 4
REMARK VINA RESULT:      -7.6      4.418      7.929
REMARK  5 active torsions:
REMARK  status: ('A' for Active; 'I' for Inactive)
REMARK    1  A    between atoms: C1_1  and  S1_2 
REMARK    2  A    between atoms: S1_2  and  N1_3 
REMARK    3  A    between atoms: N2_6  and  C4_7 
REMARK    4  A    between atoms: C4_7  and  C5_8 
REMARK    5  A    between atoms: C4_7  and  C11_14 
ROOT
ATOM      1  N1   11 d         -11.202 208.895 116.192  0.00  0.00    -0.203 NA
ATOM      2  C2   11 d         -10.611 209.397 114.926  0.00  0.00     0.135 C 
ATOM      3  C3   11 d          -9.438 208.529 114.463  0.00  0.00     0.251 C 
ATOM      4  N2   11 d          -8.390 208.250 115.523  0.00  0.00    -0.057 N 
ATOM      5  C17  11 d          -8.921 208.092 116.939  0.00  0.00     0.251 C 
ATOM      6  C18  11 d         -10.210 208.861 117.294  0.00  0.00     0.135 C 
ATOM      7  H5   11 d          -8.087 207.252 115.265  0.00  0.00     0.281 HD
ENDROOT
BRANCH   4   8
ATOM      8  C4   11 d          -7.107 209.064 115.338  0.00  0.00     0.254 C 
BRANCH   8   9
ATOM      9  C5   11 d          -6.332 208.684 114.063  0.00  0.00    -0.023 A 
ATOM     10  C6   11 d          -6.907 208.659 112.766  0.00  0.00     0.009 A 
ATOM     11  C7   11 d          -6.141 208.329 111.638  0.00  0.00     0.001 A 
ATOM     12  C8   11 d          -4.790 207.995 111.779  0.00  0.00     0.000 A 
ATOM     13  C9   11 d          -4.208 207.975 113.050  0.00  0.00     0.001 A 
ATOM     14  C10  11 d          -4.970 208.306 114.180  0.00  0.00     0.009 A 
ENDBRANCH   8   9
BRANCH   8  15
ATOM     15  C11  11 d          -6.270 209.086 116.622  0.00  0.00    -0.023 A 
ATOM     16  C12  11 d          -5.753 210.316 117.092  0.00  0.00     0.009 A 
ATOM     17  C13  11 d          -5.022 210.379 118.287  0.00  0.00     0.001 A 
ATOM     18  C14  11 d          -4.784 209.215 119.028  0.00  0.00     0.000 A 
ATOM     19  C15  11 d          -5.264 207.984 118.565  0.00  0.00     0.001 A 
ATOM     20  C16  11 d          -5.994 207.918 117.371  0.00  0.00     0.009 A 
ENDBRANCH   8  15
ENDBRANCH   4   8
BRANCH   1  21
ATOM     21  S1   11 d         -12.116 207.388 116.031  0.00  0.00     0.243 S 
ATOM     22  O1   11 d         -11.192 206.206 116.333  0.00  0.00    -0.206 OA
ATOM     23  O2   11 d         -13.239 207.346 117.073  0.00  0.00    -0.206 OA
BRANCH  21  24
ATOM     24  C1   11 d         -12.796 207.206 114.377  0.00  0.00     0.074 A 
ATOM     25  C19  11 d         -12.144 206.423 113.409  0.00  0.00     0.025 A 
ATOM     26  C20  11 d         -12.711 206.261 112.136  0.00  0.00     0.008 A 
ATOM     27  C21  11 d         -13.919 206.903 111.804  0.00  0.00    -0.062 A 
ATOM     28  C22  11 d         -14.581 207.665 112.787  0.00  0.00     0.008 A 
ATOM     29  C24  11 d         -14.579 206.638 110.480  0.00  0.00     0.048 C 
ATOM     30  C23  11 d         -14.015 207.829 114.060  0.00  0.00     0.025 A 
ENDBRANCH  21  24
ENDBRANCH   1  21
TORSDOF 5
ENDMDL
MODEL 5
REMARK VINA RESULT:      -7.6      2.161      9.145
REMARK  5 active torsions:
REMARK  status: ('A' for Active; 'I' for Inactive)
REMARK    1  A    between atoms: C1_1  and  S1_2 
REMARK    2  A    between atoms: S1_2  and  N1_3 
REMARK    3  A    between atoms: N2_6  and  C4_7 
REMARK    4  A    between atoms: C4_7  and  C5_8 
REMARK    5  A    between atoms: C4_7  and  C11_14 
ROOT
ATOM      1  N1   11 d         -12.518 205.466 117.388  0.00  0.00    -0.203 NA
ATOM      2  C2   11 d         -13.612 204.463 117.364  0.00  0.00     0.135 C 
ATOM      3  C3   11 d         -14.860 204.965 118.095  0.00  0.00     0.251 C 
ATOM      4  N2   11 d         -14.609 205.519 119.485  0.00  0.00    -0.057 N 
ATOM      5  C17  11 d         -13.292 206.257 119.664  0.00  0.00     0.251 C 
ATOM      6  C18  11 d         -12.114 205.816 118.771  0.00  0.00     0.135 C 
ATOM      7  H5   11 d         -15.338 206.306 119.534  0.00  0.00     0.281 HD
ENDROOT
BRANCH   4   8
ATOM      8  C4   11 d         -15.044 204.569 120.604  0.00  0.00     0.254 C 
BRANCH   8   9
ATOM      9  C5   11 d         -16.572 204.511 120.784  0.00  0.00    -0.023 A 
ATOM     10  C6   11 d         -17.387 205.653 120.999  0.00  0.00     0.009 A 
ATOM     11  C7   11 d         -18.778 205.537 121.129  0.00  0.00     0.001 A 
ATOM     12  C8   11 d         -19.388 204.279 121.070  0.00  0.00     0.000 A 
ATOM     13  C9   11 d         -18.605 203.134 120.897  0.00  0.00     0.001 A 
ATOM     14  C10  11 d         -17.213 203.246 120.766  0.00  0.00     0.009 A 
ENDBRANCH   8   9
BRANCH   8  15
ATOM     15  C11  11 d         -14.250 204.824 121.890  0.00  0.00    -0.023 A 
ATOM     16  C12  11 d         -13.279 203.881 122.305  0.00  0.00     0.009 A 
ATOM     17  C13  11 d         -12.503 204.104 123.451  0.00  0.00     0.001 A 
ATOM     18  C14  11 d         -12.689 205.265 124.211  0.00  0.00     0.000 A 
ATOM     19  C15  11 d         -13.663 206.197 123.833  0.00  0.00     0.001 A 
ATOM     20  C16  11 d         -14.441 205.976 122.688  0.00  0.00     0.009 A 
ENDBRANCH   8  15
ENDBRANCH   4   8
BRANCH   1  21
ATOM     21  S1   11 d         -12.796 206.883 116.364  0.00  0.00     0.243 S 
ATOM     22  O1   11 d         -13.878 207.758 117.001  0.00  0.00    -0.206 OA
ATOM     23  O2   11 d         -11.524 207.734 116.297  0.00  0.00    -0.206 OA
BRANCH  21  24
ATOM     24  C1   11 d         -13.313 206.406 114.709  0.00  0.00     0.074 A 
ATOM     25  C19  11 d         -14.631 205.989 114.456  0.00  0.00     0.025 A 
ATOM     26  C20  11 d         -15.026 205.658 113.151  0.00  0.00     0.008 A 
ATOM     27  C21  11 d         -14.102 205.712 112.089  0.00  0.00    -0.062 A 
ATOM     28  C22  11 d         -12.790 206.156 112.346  0.00  0.00     0.008 A 
ATOM     29  C24  11 d         -14.556 205.465 110.678  0.00  0.00     0.048 C 
ATOM     30  C23  11 d         -12.394 206.485 113.650  0.00  0.00     0.025 A 
ENDBRANCH  21  24
ENDBRANCH   1  21
TORSDOF 5
ENDMDL
MODEL 6
REMARK VINA RESULT:      -7.6      2.576      9.357
REMARK  5 active torsions:
REMARK  status: ('A' for Active; 'I' for Inactive)
REMARK    1  A    between atoms: C1_1  and  S1_2 
REMARK    2  A    between atoms: S1_2  and  N1_3 
REMARK    3  A    between atoms: N2_6  and  C4_7 
REMARK    4  A    between atoms: C4_7  and  C5_8 
REMARK    5  A    between atoms: C4_7  and  C11_14 
ROOT
ATOM      1  N1   11 d         -12.705 205.567 117.362  0.00  0.00    -0.203 NA
ATOM      2  C2   11 d         -13.423 204.272 117.475  0.00  0.00     0.135 C 
ATOM      3  C3   11 d         -14.870 204.464 117.941  0.00  0.00     0.251 C 
ATOM      4  N2   11 d         -15.035 205.331 119.175  0.00  0.00    -0.057 N 
ATOM      5  C17  11 d         -14.052 206.484 119.297  0.00  0.00     0.251 C 
ATOM      6  C18  11 d         -12.664 206.295 118.653  0.00  0.00     0.135 C 
ATOM      7  H5   11 d         -15.965 205.824 118.964  0.00  0.00     0.281 HD
ENDROOT
BRANCH   4   8
ATOM      8  C4   11 d         -15.343 204.529 120.442  0.00  0.00     0.254 C 
BRANCH   8   9
ATOM      9  C5   11 d         -16.847 204.475 120.768  0.00  0.00    -0.023 A 
ATOM     10  C6   11 d         -17.649 205.623 120.996  0.00  0.00     0.009 A 
ATOM     11  C7   11 d         -19.022 205.509 121.262  0.00  0.00     0.001 A 
ATOM     12  C8   11 d         -19.623 204.248 121.330  0.00  0.00     0.000 A 
ATOM     13  C9   11 d         -18.848 203.098 121.147  0.00  0.00     0.001 A 
ATOM     14  C10  11 d         -17.476 203.208 120.879  0.00  0.00     0.009 A 
ENDBRANCH   8   9
BRANCH   8  15
ATOM     15  C11  11 d         -14.445 204.960 121.606  0.00  0.00    -0.023 A 
ATOM     16  C12  11 d         -13.205 204.307 121.805  0.00  0.00     0.009 A 
ATOM     17  C13  11 d         -12.337 204.706 122.831  0.00  0.00     0.001 A 
ATOM     18  C14  11 d         -12.695 205.755 123.686  0.00  0.00     0.000 A 
ATOM     19  C15  11 d         -13.929 206.397 123.524  0.00  0.00     0.001 A 
ATOM     20  C16  11 d         -14.798 205.999 122.498  0.00  0.00     0.009 A 
ENDBRANCH   8  15
ENDBRANCH   4   8
BRANCH   1  21
ATOM     21  S1   11 d         -13.222 206.581 116.007  0.00  0.00     0.243 S 
ATOM     22  O1   11 d         -13.960 205.714 114.985  0.00  0.00    -0.206 OA
ATOM     23  O2   11 d         -14.222 207.633 116.496  0.00  0.00    -0.206 OA
BRANCH  21  24
ATOM     24  C1   11 d         -11.820 207.378 115.211  0.00  0.00     0.074 A 
ATOM     25  C19  11 d         -11.458 207.055 113.892  0.00  0.00     0.025 A 
ATOM     26  C20  11 d         -10.386 207.717 113.274  0.00  0.00     0.008 A 
ATOM     27  C21  11 d          -9.645 208.686 113.976  0.00  0.00    -0.062 A 
ATOM     28  C22  11 d         -10.029 209.024 115.289  0.00  0.00     0.008 A 
ATOM     29  C24  11 d          -8.570 209.471 113.277  0.00  0.00     0.048 C 
ATOM     30  C23  11 d         -11.100 208.362 115.908  0.00  0.00     0.025 A 
ENDBRANCH  21  24
ENDBRANCH   1  21
TORSDOF 5
ENDMDL
MODEL 7
REMARK VINA RESULT:      -7.5      6.912     10.495
REMARK  5 active torsions:
REMARK  status: ('A' for Active; 'I' for Inactive)
REMARK    1  A    between atoms: C1_1  and  S1_2 
REMARK    2  A    between atoms: S1_2  and  N1_3 
REMARK    3  A    between atoms: N2_6  and  C4_7 
REMARK    4  A    between atoms: C4_7  and  C5_8 
REMARK    5  A    between atoms: C4_7  and  C11_14 
ROOT
ATOM      1  N1   11 d          -6.457 208.057 114.823  0.00  0.00    -0.203 NA
ATOM      2  C2   11 d          -6.770 208.029 116.274  0.00  0.00     0.135 C 
ATOM      3  C3   11 d          -6.351 209.327 116.971  0.00  0.00     0.251 C 
ATOM      4  N2   11 d          -4.928 209.772 116.691  0.00  0.00    -0.057 N 
ATOM      5  C17  11 d          -4.417 209.479 115.289  0.00  0.00     0.251 C 
ATOM      6  C18  11 d          -5.010 208.250 114.570  0.00  0.00     0.135 C 
ATOM      7  H5   11 d          -5.037 210.841 116.691  0.00  0.00     0.281 HD
ENDROOT
BRANCH   4   8
ATOM      8  C4   11 d          -3.971 209.517 117.858  0.00  0.00     0.254 C 
BRANCH   8   9
ATOM      9  C5   11 d          -4.028 208.068 118.376  0.00  0.00    -0.023 A 
ATOM     10  C6   11 d          -4.689 207.681 119.571  0.00  0.00     0.009 A 
ATOM     11  C7   11 d          -4.728 206.339 119.977  0.00  0.00     0.001 A 
ATOM     12  C8   11 d          -4.091 205.355 119.214  0.00  0.00     0.000 A 
ATOM     13  C9   11 d          -3.400 205.714 118.052  0.00  0.00     0.001 A 
ATOM     14  C10  11 d          -3.360 207.055 117.643  0.00  0.00     0.009 A 
ENDBRANCH   8   9
BRANCH   8  15
ATOM     15  C11  11 d          -4.109 210.596 118.937  0.00  0.00    -0.023 A 
ATOM     16  C12  11 d          -2.955 211.037 119.629  0.00  0.00     0.009 A 
ATOM     17  C13  11 d          -3.038 212.054 120.591  0.00  0.00     0.001 A 
ATOM     18  C14  11 d          -4.273 212.643 120.887  0.00  0.00     0.000 A 
ATOM     19  C15  11 d          -5.430 212.203 120.234  0.00  0.00     0.001 A 
ATOM     20  C16  11 d          -5.351 211.185 119.273  0.00  0.00     0.009 A 
ENDBRANCH   8  15
ENDBRANCH   4   8
BRANCH   1  21
ATOM     21  S1   11 d          -7.483 209.139 113.870  0.00  0.00     0.243 S 
ATOM     22  O1   11 d          -7.380 210.556 114.437  0.00  0.00    -0.206 OA
ATOM     23  O2   11 d          -6.971 209.204 112.427  0.00  0.00    -0.206 OA
BRANCH  21  24
ATOM     24  C1   11 d          -9.201 208.609 113.896  0.00  0.00     0.074 A 
ATOM     25  C19  11 d          -9.999 208.801 115.036  0.00  0.00     0.025 A 
ATOM     26  C20  11 d         -11.348 208.417 115.024  0.00  0.00     0.008 A 
ATOM     27  C21  11 d         -11.908 207.809 113.884  0.00  0.00    -0.062 A 
ATOM     28  C22  11 d         -11.109 207.642 112.736  0.00  0.00     0.008 A 
ATOM     29  C24  11 d         -13.378 207.500 113.835  0.00  0.00     0.048 C 
ATOM     30  C23  11 d          -9.760 208.025 112.747  0.00  0.00     0.025 A 
ENDBRANCH  21  24
ENDBRANCH   1  21
TORSDOF 5
ENDMDL
MODEL 8
REMARK VINA RESULT:      -7.4      7.175     11.265
REMARK  5 active torsions:
REMARK  status: ('A' for Active; 'I' for Inactive)
REMARK    1  A    between atoms: C1_1  and  S1_2 
REMARK    2  A    between atoms: S1_2  and  N1_3 
REMARK    3  A    between atoms: N2_6  and  C4_7 
REMARK    4  A    between atoms: C4_7  and  C5_8 
REMARK    5  A    between atoms: C4_7  and  C11_14 
ROOT
ATOM      1  N1   11 d          -5.136 208.636 115.749  0.00  0.00    -0.203 NA
ATOM      2  C2   11 d          -6.165 207.980 116.595  0.00  0.00     0.135 C 
ATOM      3  C3   11 d          -6.689 208.921 117.684  0.00  0.00     0.251 C 
ATOM      4  N2   11 d          -5.615 209.611 118.504  0.00  0.00    -0.057 N 
ATOM      5  C17  11 d          -4.351 209.980 117.744  0.00  0.00     0.251 C 
ATOM      6  C18  11 d          -3.969 209.090 116.543  0.00  0.00     0.135 C 
ATOM      7  H5   11 d          -6.073 210.564 118.692  0.00  0.00     0.281 HD
ENDROOT
BRANCH   4   8
ATOM      8  C4   11 d          -5.448 209.020 119.906  0.00  0.00     0.254 C 
BRANCH   8   9
ATOM      9  C5   11 d          -6.445 207.883 120.201  0.00  0.00    -0.023 A 
ATOM     10  C6   11 d          -7.778 208.094 120.640  0.00  0.00     0.009 A 
ATOM     11  C7   11 d          -8.646 207.017 120.867  0.00  0.00     0.001 A 
ATOM     12  C8   11 d          -8.200 205.703 120.684  0.00  0.00     0.000 A 
ATOM     13  C9   11 d          -6.880 205.466 120.289  0.00  0.00     0.001 A 
ATOM     14  C10  11 d          -6.009 206.541 120.060  0.00  0.00     0.009 A 
ENDBRANCH   8   9
BRANCH   8  15
ATOM     15  C11  11 d          -5.388 210.120 120.970  0.00  0.00    -0.023 A 
ATOM     16  C12  11 d          -5.026 209.783 122.297  0.00  0.00     0.009 A 
ATOM     17  C13  11 d          -4.916 210.771 123.286  0.00  0.00     0.001 A 
ATOM     18  C14  11 d          -5.176 212.110 122.973  0.00  0.00     0.000 A 
ATOM     19  C15  11 d          -5.562 212.461 121.674  0.00  0.00     0.001 A 
ATOM     20  C16  11 d          -5.673 211.475 120.684  0.00  0.00     0.009 A 
ENDBRANCH   8  15
ENDBRANCH   4   8
BRANCH   1  21
ATOM     21  S1   11 d          -5.763 209.880 114.658  0.00  0.00     0.243 S 
ATOM     22  O1   11 d          -6.088 211.138 115.466  0.00  0.00    -0.206 OA
ATOM     23  O2   11 d          -4.685 210.274 113.643  0.00  0.00    -0.206 OA
BRANCH  21  24
ATOM     24  C1   11 d          -7.243 209.320 113.804  0.00  0.00     0.074 A 
ATOM     25  C19  11 d          -7.168 208.767 112.514  0.00  0.00     0.025 A 
ATOM     26  C20  11 d          -8.329 208.299 111.880  0.00  0.00     0.008 A 
ATOM     27  C21  11 d          -9.582 208.405 112.515  0.00  0.00    -0.062 A 
ATOM     28  C22  11 d          -9.646 208.936 113.817  0.00  0.00     0.008 A 
ATOM     29  C24  11 d         -10.804 207.802 111.881  0.00  0.00     0.048 C 
ATOM     30  C23  11 d          -8.487 209.405 114.452  0.00  0.00     0.025 A 
ENDBRANCH  21  24
ENDBRANCH   1  21
TORSDOF 5
ENDMDL
MODEL 9
REMARK VINA RESULT:      -7.3      2.738      4.781
REMARK  5 active torsions:
REMARK  status: ('A' for Active; 'I' for Inactive)
REMARK    1  A    between atoms: C1_1  and  S1_2 
REMARK    2  A    between atoms: S1_2  and  N1_3 
REMARK    3  A    between atoms: N2_6  and  C4_7 
REMARK    4  A    between atoms: C4_7  and  C5_8 
REMARK    5  A    between atoms: C4_7  and  C11_14 
ROOT
ATOM      1  N1   11 d         -15.016 205.675 121.232  0.00  0.00    -0.203 NA
ATOM      2  C2   11 d         -14.193 206.762 120.645  0.00  0.00     0.135 C 
ATOM      3  C3   11 d         -14.441 206.913 119.141  0.00  0.00     0.251 C 
ATOM      4  N2   11 d         -14.355 205.625 118.346  0.00  0.00    -0.057 N 
ATOM      5  C17  11 d         -14.857 204.381 119.063  0.00  0.00     0.251 C 
ATOM      6  C18  11 d         -14.738 204.362 120.601  0.00  0.00     0.135 C 
ATOM      7  H5   11 d         -15.104 205.790 117.594  0.00  0.00     0.281 HD
ENDROOT
BRANCH   4   8
ATOM      8  C4   11 d         -13.064 205.497 117.533  0.00  0.00     0.254 C 
BRANCH   8   9
ATOM      9  C5   11 d         -11.917 206.362 118.087  0.00  0.00    -0.023 A 
ATOM     10  C6   11 d         -11.658 207.694 117.671  0.00  0.00     0.009 A 
ATOM     11  C7   11 d         -10.613 208.441 118.233  0.00  0.00     0.001 A 
ATOM     12  C8   11 d          -9.787 207.871 119.209  0.00  0.00     0.000 A 
ATOM     13  C9   11 d          -9.996 206.548 119.610  0.00  0.00     0.001 A 
ATOM     14  C10  11 d         -11.041 205.798 119.050  0.00  0.00     0.009 A 
ENDBRANCH   8   9
BRANCH   8  15
ATOM     15  C11  11 d         -13.332 205.662 116.033  0.00  0.00    -0.023 A 
ATOM     16  C12  11 d         -14.664 205.623 115.558  0.00  0.00     0.009 A 
ATOM     17  C13  11 d         -14.949 205.815 114.198  0.00  0.00     0.001 A 
ATOM     18  C14  11 d         -13.910 206.038 113.287  0.00  0.00     0.000 A 
ATOM     19  C15  11 d         -12.583 206.053 113.733  0.00  0.00     0.001 A 
ATOM     20  C16  11 d         -12.296 205.861 115.091  0.00  0.00     0.009 A 
ENDBRANCH   8  15
ENDBRANCH   4   8
BRANCH   1  21
ATOM     21  S1   11 d         -16.745 206.039 121.346  0.00  0.00     0.243 S 
ATOM     22  O1   11 d         -16.991 207.465 120.848  0.00  0.00    -0.206 OA
ATOM     23  O2   11 d         -17.536 205.107 120.424  0.00  0.00    -0.206 OA
BRANCH  21  24
ATOM     24  C1   11 d         -17.337 205.888 123.038  0.00  0.00     0.074 A 
ATOM     25  C19  11 d         -18.713 205.871 123.322  0.00  0.00     0.025 A 
ATOM     26  C20  11 d         -19.157 205.712 124.644  0.00  0.00     0.008 A 
ATOM     27  C21  11 d         -18.231 205.599 125.700  0.00  0.00    -0.062 A 
ATOM     28  C22  11 d         -16.854 205.592 125.404  0.00  0.00     0.008 A 
ATOM     29  C24  11 d         -18.708 205.319 127.097  0.00  0.00     0.048 C 
ATOM     30  C23  11 d         -16.409 205.751 124.084  0.00  0.00     0.025 A 
ENDBRANCH  21  24
ENDBRANCH   1  21
TORSDOF 5
ENDMDL
MODEL 10
REMARK VINA RESULT:      -7.3      3.407     10.527
REMARK  5 active torsions:
REMARK  status: ('A' for Active; 'I' for Inactive)
REMARK    1  A    between atoms: C1_1  and  S1_2 
REMARK    2  A    between atoms: S1_2  and  N1_3 
REMARK    3  A    between atoms: N2_6  and  C4_7 
REMARK    4  A    between atoms: C4_7  and  C5_8 
REMARK    5  A    between atoms: C4_7  and  C11_14 
ROOT
ATOM      1  N1   11 d         -15.144 206.510 121.735  0.00  0.00    -0.203 NA
ATOM      2  C2   11 d         -15.418 206.147 123.148  0.00  0.00     0.135 C 
ATOM      3  C3   11 d         -16.345 204.933 123.252  0.00  0.00     0.251 C 
ATOM      4  N2   11 d         -17.609 205.019 122.418  0.00  0.00    -0.057 N 
ATOM      5  C17  11 d         -17.462 205.733 121.083  0.00  0.00     0.251 C 
ATOM      6  C18  11 d         -16.385 206.834 120.992  0.00  0.00     0.135 C 
ATOM      7  H5   11 d         -17.744 203.993 122.131  0.00  0.00     0.281 HD
ENDROOT
BRANCH   4   8
ATOM      8  C4   11 d         -18.862 205.320 123.244  0.00  0.00     0.254 C 
BRANCH   8   9
ATOM      9  C5   11 d         -18.544 205.948 124.613  0.00  0.00    -0.023 A 
ATOM     10  C6   11 d         -18.171 205.199 125.759  0.00  0.00     0.009 A 
ATOM     11  C7   11 d         -17.867 205.832 126.973  0.00  0.00     0.001 A 
ATOM     12  C8   11 d         -17.948 207.225 127.079  0.00  0.00     0.000 A 
ATOM     13  C9   11 d         -18.349 207.984 125.976  0.00  0.00     0.001 A 
ATOM     14  C10  11 d         -18.653 207.355 124.760  0.00  0.00     0.009 A 
ENDBRANCH   8   9
BRANCH   8  15
ATOM     15  C11  11 d         -19.802 204.111 123.290  0.00  0.00    -0.023 A 
ATOM     16  C12  11 d         -19.917 203.277 122.152  0.00  0.00     0.009 A 
ATOM     17  C13  11 d         -20.733 202.136 122.174  0.00  0.00     0.001 A 
ATOM     18  C14  11 d         -21.457 201.813 123.328  0.00  0.00     0.000 A 
ATOM     19  C15  11 d         -21.379 202.640 124.455  0.00  0.00     0.001 A 
ATOM     20  C16  11 d         -20.565 203.781 124.435  0.00  0.00     0.009 A 
ENDBRANCH   8  15
ENDBRANCH   4   8
BRANCH   1  21
ATOM     21  S1   11 d         -14.092 205.377 120.873  0.00  0.00     0.243 S 
ATOM     22  O1   11 d         -12.676 205.472 121.445  0.00  0.00    -0.206 OA
ATOM     23  O2   11 d         -14.568 203.941 121.112  0.00  0.00    -0.206 OA
BRANCH  21  24
ATOM     24  C1   11 d         -14.049 205.731 119.111  0.00  0.00     0.074 A 
ATOM     25  C19  11 d         -13.711 207.012 118.639  0.00  0.00     0.025 A 
ATOM     26  C20  11 d         -13.644 207.259 117.260  0.00  0.00     0.008 A 
ATOM     27  C21  11 d         -13.942 206.239 116.336  0.00  0.00    -0.062 A 
ATOM     28  C22  11 d         -14.254 204.952 116.815  0.00  0.00     0.008 A 
ATOM     29  C24  11 d         -13.761 206.476 114.862  0.00  0.00     0.048 C 
ATOM     30  C23  11 d         -14.323 204.703 118.193  0.00  0.00     0.025 A 
ENDBRANCH  21  24
ENDBRANCH   1  21
TORSDOF 5
ENDMDL
