MODEL 1
REMARK VINA RESULT:     -10.0      0.000      0.000
REMARK  0 active torsions:
REMARK  status: ('A' for Active; 'I' for Inactive)
REMARK       I    between atoms: C8_9  and  N3_19 
ROOT
ATOM      1  C1   11 d         -13.154 207.450 113.663  0.00  0.00     0.088 A 
ATOM      2  C2   11 d         -14.267 207.017 112.750  0.00  0.00    -0.007 A 
ATOM      3  C3   11 d         -14.108 206.887 111.346  0.00  0.00     0.014 A 
ATOM      4  C4   11 d         -15.177 206.480 110.532  0.00  0.00     0.001 A 
ATOM      5  C5   11 d         -16.425 206.194 111.098  0.00  0.00     0.000 A 
ATOM      6  C6   11 d         -16.606 206.315 112.480  0.00  0.00     0.001 A 
ATOM      7  C7   11 d         -15.540 206.722 113.297  0.00  0.00     0.014 A 
ATOM      8  N1   11 d         -13.412 207.541 115.002  0.00  0.00    -0.063 NA
ATOM      9  C8   11 d         -12.469 207.923 115.900  0.00  0.00     0.721 A 
ATOM     10  N2   11 d         -11.219 208.230 115.468  0.00  0.00    -0.063 NA
ATOM     11  C9   11 d         -10.865 208.170 114.150  0.00  0.00     0.088 A 
ATOM     12  C10  11 d          -9.455 208.528 113.773  0.00  0.00    -0.007 A 
ATOM     13  C11  11 d          -8.980 208.500 112.436  0.00  0.00     0.014 A 
ATOM     14  C12  11 d          -7.654 208.844 112.132  0.00  0.00     0.001 A 
ATOM     15  C13  11 d          -6.772 209.222 113.151  0.00  0.00     0.000 A 
ATOM     16  C14  11 d          -7.216 209.258 114.477  0.00  0.00     0.001 A 
ATOM     17  C15  11 d          -8.540 208.915 114.785  0.00  0.00     0.014 A 
ATOM     18  C16  11 d         -11.850 207.771 113.218  0.00  0.00     0.066 A 
ATOM     19  N3   11 d         -12.776 207.999 117.232  0.00  0.00    -0.231 N 
ATOM     20  H12  11 d         -13.691 207.775 117.548  0.00  0.00     0.174 HD
ATOM     21  H13  11 d         -12.084 208.279 117.888  0.00  0.00     0.174 HD
ENDROOT
TORSDOF 0
ENDMDL
MODEL 2
REMARK VINA RESULT:     -10.0      0.036      6.458
REMARK  0 active torsions:
REMARK  status: ('A' for Active; 'I' for Inactive)
REMARK       I    between atoms: C8_9  and  N3_19 
ROOT
ATOM      1  C1   11 d         -10.871 208.164 114.159  0.00  0.00     0.088 A 
ATOM      2  C2   11 d          -9.465 208.528 113.774  0.00  0.00    -0.007 A 
ATOM      3  C3   11 d          -8.998 208.499 112.434  0.00  0.00     0.014 A 
ATOM      4  C4   11 d          -7.675 208.848 112.122  0.00  0.00     0.001 A 
ATOM      5  C5   11 d          -6.789 209.232 113.135  0.00  0.00     0.000 A 
ATOM      6  C6   11 d          -7.226 209.269 114.463  0.00  0.00     0.001 A 
ATOM      7  C7   11 d          -8.548 208.921 114.780  0.00  0.00     0.014 A 
ATOM      8  N1   11 d         -11.219 208.228 115.480  0.00  0.00    -0.063 NA
ATOM      9  C8   11 d         -12.465 207.917 115.919  0.00  0.00     0.721 A 
ATOM     10  N2   11 d         -13.411 207.527 115.028  0.00  0.00    -0.063 NA
ATOM     11  C9   11 d         -13.160 207.432 113.688  0.00  0.00     0.088 A 
ATOM     12  C10  11 d         -14.275 206.991 112.782  0.00  0.00    -0.007 A 
ATOM     13  C11  11 d         -14.124 206.858 111.377  0.00  0.00     0.014 A 
ATOM     14  C12  11 d         -15.195 206.442 110.572  0.00  0.00     0.001 A 
ATOM     15  C13  11 d         -16.438 206.150 111.145  0.00  0.00     0.000 A 
ATOM     16  C14  11 d         -16.612 206.274 112.528  0.00  0.00     0.001 A 
ATOM     17  C15  11 d         -15.545 206.689 113.336  0.00  0.00     0.014 A 
ATOM     18  C16  11 d         -11.860 207.756 113.234  0.00  0.00     0.066 A 
ATOM     19  N3   11 d         -12.766 207.998 117.252  0.00  0.00    -0.231 N 
ATOM     20  H12  11 d         -12.073 208.283 117.904  0.00  0.00     0.174 HD
ATOM     21  H13  11 d         -13.678 207.769 117.572  0.00  0.00     0.174 HD
ENDROOT
TORSDOF 0
ENDMDL
MODEL 3
REMARK VINA RESULT:      -9.0      1.401      6.826
REMARK  0 active torsions:
REMARK  status: ('A' for Active; 'I' for Inactive)
REMARK       I    between atoms: C8_9  and  N3_19 
ROOT
ATOM      1  C1   11 d          -8.680 208.568 114.001  0.00  0.00     0.088 A 
ATOM      2  C2   11 d          -7.232 208.665 113.609  0.00  0.00    -0.007 A 
ATOM      3  C3   11 d          -6.747 208.266 112.336  0.00  0.00     0.014 A 
ATOM      4  C4   11 d          -5.385 208.375 112.015  0.00  0.00     0.001 A 
ATOM      5  C5   11 d          -4.478 208.880 112.952  0.00  0.00     0.000 A 
ATOM      6  C6   11 d          -4.931 209.279 114.214  0.00  0.00     0.001 A 
ATOM      7  C7   11 d          -6.292 209.174 114.540  0.00  0.00     0.014 A 
ATOM      8  N1   11 d          -9.042 208.981 115.253  0.00  0.00    -0.063 NA
ATOM      9  C8   11 d         -10.325 208.931 115.692  0.00  0.00     0.721 A 
ATOM     10  N2   11 d         -11.295 208.455 114.871  0.00  0.00    -0.063 NA
ATOM     11  C9   11 d         -11.033 208.019 113.603  0.00  0.00     0.088 A 
ATOM     12  C10  11 d         -12.177 207.510 112.772  0.00  0.00    -0.007 A 
ATOM     13  C11  11 d         -12.017 207.034 111.445  0.00  0.00     0.014 A 
ATOM     14  C12  11 d         -13.116 206.568 110.707  0.00  0.00     0.001 A 
ATOM     15  C13  11 d         -14.396 206.567 111.273  0.00  0.00     0.000 A 
ATOM     16  C14  11 d         -14.580 207.032 112.579  0.00  0.00     0.001 A 
ATOM     17  C15  11 d         -13.484 207.499 113.320  0.00  0.00     0.014 A 
ATOM     18  C16  11 d          -9.694 208.073 113.149  0.00  0.00     0.066 A 
ATOM     19  N3   11 d         -10.638 209.358 116.955  0.00  0.00    -0.231 N 
ATOM     20  H12  11 d          -9.928 209.705 117.555  0.00  0.00     0.174 HD
ATOM     21  H13  11 d         -11.577 209.319 117.275  0.00  0.00     0.174 HD
ENDROOT
TORSDOF 0
ENDMDL
MODEL 4
REMARK VINA RESULT:      -8.9      1.350      2.101
REMARK  0 active torsions:
REMARK  status: ('A' for Active; 'I' for Inactive)
REMARK       I    between atoms: C8_9  and  N3_19 
ROOT
ATOM      1  C1   11 d         -11.184 207.977 113.592  0.00  0.00     0.088 A 
ATOM      2  C2   11 d         -12.357 207.463 112.806  0.00  0.00    -0.007 A 
ATOM      3  C3   11 d         -12.244 206.976 111.477  0.00  0.00     0.014 A 
ATOM      4  C4   11 d         -13.369 206.506 110.781  0.00  0.00     0.001 A 
ATOM      5  C5   11 d         -14.628 206.512 111.391  0.00  0.00     0.000 A 
ATOM      6  C6   11 d         -14.765 206.987 112.700  0.00  0.00     0.001 A 
ATOM      7  C7   11 d         -13.643 207.457 113.400  0.00  0.00     0.014 A 
ATOM      8  N1   11 d         -11.402 208.421 114.866  0.00  0.00    -0.063 NA
ATOM      9  C8   11 d         -10.403 208.902 115.649  0.00  0.00     0.721 A 
ATOM     10  N2   11 d          -9.136 208.949 115.164  0.00  0.00    -0.063 NA
ATOM     11  C9   11 d          -8.818 208.528 113.904  0.00  0.00     0.088 A 
ATOM     12  C10  11 d          -7.386 208.621 113.460  0.00  0.00    -0.007 A 
ATOM     13  C11  11 d          -6.946 208.212 112.174  0.00  0.00     0.014 A 
ATOM     14  C12  11 d          -5.596 208.318 111.804  0.00  0.00     0.001 A 
ATOM     15  C13  11 d          -4.656 208.831 112.705  0.00  0.00     0.000 A 
ATOM     16  C14  11 d          -5.065 209.240 113.979  0.00  0.00     0.001 A 
ATOM     17  C15  11 d          -6.412 209.136 114.353  0.00  0.00     0.014 A 
ATOM     18  C16  11 d          -9.862 208.028 113.091  0.00  0.00     0.066 A 
ATOM     19  N3   11 d         -10.671 209.335 116.920  0.00  0.00    -0.231 N 
ATOM     20  H12  11 d         -11.598 209.301 117.274  0.00  0.00     0.174 HD
ATOM     21  H13  11 d          -9.939 209.687 117.491  0.00  0.00     0.174 HD
ENDROOT
TORSDOF 0
ENDMDL
MODEL 5
REMARK VINA RESULT:      -8.7      3.006      6.070
REMARK  0 active torsions:
REMARK  status: ('A' for Active; 'I' for Inactive)
REMARK       I    between atoms: C8_9  and  N3_19 
ROOT
ATOM      1  C1   11 d         -11.632 207.290 114.684  0.00  0.00     0.088 A 
ATOM      2  C2   11 d         -11.329 207.418 113.218  0.00  0.00    -0.007 A 
ATOM      3  C3   11 d         -11.937 206.601 112.229  0.00  0.00     0.014 A 
ATOM      4  C4   11 d         -11.622 206.756 110.870  0.00  0.00     0.001 A 
ATOM      5  C5   11 d         -10.697 207.725 110.467  0.00  0.00     0.000 A 
ATOM      6  C6   11 d         -10.084 208.542 111.423  0.00  0.00     0.001 A 
ATOM      7  C7   11 d         -10.396 208.391 112.783  0.00  0.00     0.014 A 
ATOM      8  N1   11 d         -10.992 208.129 115.554  0.00  0.00    -0.063 NA
ATOM      9  C8   11 d         -11.203 208.085 116.894  0.00  0.00     0.721 A 
ATOM     10  N2   11 d         -12.078 207.183 117.404  0.00  0.00    -0.063 NA
ATOM     11  C9   11 d         -12.765 206.303 116.617  0.00  0.00     0.088 A 
ATOM     12  C10  11 d         -13.713 205.342 117.279  0.00  0.00    -0.007 A 
ATOM     13  C11  11 d         -14.475 204.387 116.557  0.00  0.00     0.014 A 
ATOM     14  C12  11 d         -15.348 203.509 117.220  0.00  0.00     0.001 A 
ATOM     15  C13  11 d         -15.480 203.563 118.612  0.00  0.00     0.000 A 
ATOM     16  C14  11 d         -14.739 204.496 119.345  0.00  0.00     0.001 A 
ATOM     17  C15  11 d         -13.867 205.375 118.688  0.00  0.00     0.014 A 
ATOM     18  C16  11 d         -12.543 206.351 115.221  0.00  0.00     0.066 A 
ATOM     19  N3   11 d         -10.539 208.947 117.724  0.00  0.00    -0.231 N 
ATOM     20  H12  11 d          -9.897 209.607 117.351  0.00  0.00     0.174 HD
ATOM     21  H13  11 d         -10.694 208.914 118.705  0.00  0.00     0.174 HD
ENDROOT
TORSDOF 0
ENDMDL
MODEL 6
REMARK VINA RESULT:      -8.7      2.975      4.484
REMARK  0 active torsions:
REMARK  status: ('A' for Active; 'I' for Inactive)
REMARK       I    between atoms: C8_9  and  N3_19 
ROOT
ATOM      1  C1   11 d         -12.731 206.330 116.567  0.00  0.00     0.088 A 
ATOM      2  C2   11 d         -13.683 205.374 117.229  0.00  0.00    -0.007 A 
ATOM      3  C3   11 d         -14.460 204.431 116.505  0.00  0.00     0.014 A 
ATOM      4  C4   11 d         -15.337 203.557 117.166  0.00  0.00     0.001 A 
ATOM      5  C5   11 d         -15.461 203.603 118.559  0.00  0.00     0.000 A 
ATOM      6  C6   11 d         -14.707 204.524 119.295  0.00  0.00     0.001 A 
ATOM      7  C7   11 d         -13.828 205.399 118.638  0.00  0.00     0.014 A 
ATOM      8  N1   11 d         -12.030 207.197 117.358  0.00  0.00    -0.063 NA
ATOM      9  C8   11 d         -11.149 208.095 116.849  0.00  0.00     0.721 A 
ATOM     10  N2   11 d         -10.946 208.147 115.508  0.00  0.00    -0.063 NA
ATOM     11  C9   11 d         -11.600 207.322 114.636  0.00  0.00     0.088 A 
ATOM     12  C10  11 d         -11.305 207.457 113.169  0.00  0.00    -0.007 A 
ATOM     13  C11  11 d         -11.926 206.654 112.178  0.00  0.00     0.014 A 
ATOM     14  C12  11 d         -11.620 206.817 110.818  0.00  0.00     0.001 A 
ATOM     15  C13  11 d         -10.688 207.781 110.415  0.00  0.00     0.000 A 
ATOM     16  C14  11 d         -10.062 208.585 111.373  0.00  0.00     0.001 A 
ATOM     17  C15  11 d         -10.366 208.426 112.733  0.00  0.00     0.014 A 
ATOM     18  C16  11 d         -12.517 206.388 115.171  0.00  0.00     0.066 A 
ATOM     19  N3   11 d         -10.469 208.942 117.682  0.00  0.00    -0.231 N 
ATOM     20  H12  11 d         -10.618 208.904 118.663  0.00  0.00     0.174 HD
ATOM     21  H13  11 d          -9.825 209.599 117.307  0.00  0.00     0.174 HD
ENDROOT
TORSDOF 0
ENDMDL
MODEL 7
REMARK VINA RESULT:      -8.6      2.115      3.646
REMARK  0 active torsions:
REMARK  status: ('A' for Active; 'I' for Inactive)
REMARK       I    between atoms: C8_9  and  N3_19 
ROOT
ATOM      1  C1   11 d         -12.676 207.404 112.835  0.00  0.00     0.088 A 
ATOM      2  C2   11 d         -14.028 207.018 112.303  0.00  0.00    -0.007 A 
ATOM      3  C3   11 d         -15.111 206.646 113.142  0.00  0.00     0.014 A 
ATOM      4  C4   11 d         -16.357 206.293 112.600  0.00  0.00     0.001 A 
ATOM      5  C5   11 d         -16.551 206.302 111.214  0.00  0.00     0.000 A 
ATOM      6  C6   11 d         -15.498 206.665 110.366  0.00  0.00     0.001 A 
ATOM      7  C7   11 d         -14.251 207.020 110.904  0.00  0.00     0.014 A 
ATOM      8  N1   11 d         -11.702 207.749 111.941  0.00  0.00    -0.063 NA
ATOM      9  C8   11 d         -10.453 208.110 112.330  0.00  0.00     0.721 A 
ATOM     10  N2   11 d         -10.145 208.136 113.651  0.00  0.00    -0.063 NA
ATOM     11  C9   11 d         -11.050 207.808 114.620  0.00  0.00     0.088 A 
ATOM     12  C10  11 d         -10.611 207.868 116.056  0.00  0.00    -0.007 A 
ATOM     13  C11  11 d         -11.469 207.549 117.141  0.00  0.00     0.014 A 
ATOM     14  C12  11 d         -11.014 207.620 118.467  0.00  0.00     0.001 A 
ATOM     15  C13  11 d          -9.698 208.010 118.742  0.00  0.00     0.000 A 
ATOM     16  C14  11 d          -8.833 208.329 117.689  0.00  0.00     0.001 A 
ATOM     17  C15  11 d          -9.284 208.260 116.363  0.00  0.00     0.014 A 
ATOM     18  C16  11 d         -12.350 207.432 114.211  0.00  0.00     0.066 A 
ATOM     19  N3   11 d          -9.511 208.448 111.395  0.00  0.00    -0.231 N 
ATOM     20  H12  11 d          -9.737 208.428 110.428  0.00  0.00     0.174 HD
ATOM     21  H13  11 d          -8.597 208.712 111.682  0.00  0.00     0.174 HD
ENDROOT
TORSDOF 0
ENDMDL
MODEL 8
REMARK VINA RESULT:      -8.6      2.111      6.883
REMARK  0 active torsions:
REMARK  status: ('A' for Active; 'I' for Inactive)
REMARK       I    between atoms: C8_9  and  N3_19 
ROOT
ATOM      1  C1   11 d         -11.078 207.792 114.648  0.00  0.00     0.088 A 
ATOM      2  C2   11 d         -10.627 207.842 116.080  0.00  0.00    -0.007 A 
ATOM      3  C3   11 d         -11.472 207.503 117.169  0.00  0.00     0.014 A 
ATOM      4  C4   11 d         -11.006 207.564 118.492  0.00  0.00     0.001 A 
ATOM      5  C5   11 d          -9.692 207.964 118.759  0.00  0.00     0.000 A 
ATOM      6  C6   11 d          -8.840 208.303 117.702  0.00  0.00     0.001 A 
ATOM      7  C7   11 d          -9.301 208.243 116.378  0.00  0.00     0.014 A 
ATOM      8  N1   11 d         -10.183 208.137 113.674  0.00  0.00    -0.063 NA
ATOM      9  C8   11 d         -10.503 208.122 112.355  0.00  0.00     0.721 A 
ATOM     10  N2   11 d         -11.752 207.754 111.973  0.00  0.00    -0.063 NA
ATOM     11  C9   11 d         -12.715 207.392 112.871  0.00  0.00     0.088 A 
ATOM     12  C10  11 d         -14.068 207.000 112.348  0.00  0.00    -0.007 A 
ATOM     13  C11  11 d         -15.140 206.608 113.191  0.00  0.00     0.014 A 
ATOM     14  C12  11 d         -16.387 206.251 112.656  0.00  0.00     0.001 A 
ATOM     15  C13  11 d         -16.594 206.273 111.272  0.00  0.00     0.000 A 
ATOM     16  C14  11 d         -15.553 206.656 110.419  0.00  0.00     0.001 A 
ATOM     17  C15  11 d         -14.305 207.014 110.950  0.00  0.00     0.014 A 
ATOM     18  C16  11 d         -12.379 207.409 114.245  0.00  0.00     0.066 A 
ATOM     19  N3   11 d          -9.571 208.474 111.416  0.00  0.00    -0.231 N 
ATOM     20  H12  11 d          -8.657 208.745 111.696  0.00  0.00     0.174 HD
ATOM     21  H13  11 d          -9.806 208.464 110.451  0.00  0.00     0.174 HD
ENDROOT
TORSDOF 0
ENDMDL
MODEL 9
REMARK VINA RESULT:      -8.4      2.557      6.727
REMARK  0 active torsions:
REMARK  status: ('A' for Active; 'I' for Inactive)
REMARK       I    between atoms: C8_9  and  N3_19 
ROOT
ATOM      1  C1   11 d         -12.620 206.471 116.210  0.00  0.00     0.088 A 
ATOM      2  C2   11 d         -11.350 207.024 116.793  0.00  0.00    -0.007 A 
ATOM      3  C3   11 d         -10.496 207.909 116.084  0.00  0.00     0.014 A 
ATOM      4  C4   11 d          -9.318 208.401 116.669  0.00  0.00     0.001 A 
ATOM      5  C5   11 d          -8.966 208.022 117.970  0.00  0.00     0.000 A 
ATOM      6  C6   11 d          -9.792 207.151 118.688  0.00  0.00     0.001 A 
ATOM      7  C7   11 d         -10.970 206.658 118.108  0.00  0.00     0.014 A 
ATOM      8  N1   11 d         -13.372 205.628 116.979  0.00  0.00    -0.063 NA
ATOM      9  C8   11 d         -14.533 205.081 116.536  0.00  0.00     0.721 A 
ATOM     10  N2   11 d         -14.976 205.372 115.287  0.00  0.00    -0.063 NA
ATOM     11  C9   11 d         -14.295 206.204 114.444  0.00  0.00     0.088 A 
ATOM     12  C10  11 d         -14.869 206.464 113.080  0.00  0.00    -0.007 A 
ATOM     13  C11  11 d         -14.245 207.310 112.126  0.00  0.00     0.014 A 
ATOM     14  C12  11 d         -14.819 207.522 110.863  0.00  0.00     0.001 A 
ATOM     15  C13  11 d         -16.026 206.900 110.523  0.00  0.00     0.000 A 
ATOM     16  C14  11 d         -16.661 206.062 111.446  0.00  0.00     0.001 A 
ATOM     17  C15  11 d         -16.090 205.847 112.709  0.00  0.00     0.014 A 
ATOM     18  C16  11 d         -13.086 206.772 114.909  0.00  0.00     0.066 A 
ATOM     19  N3   11 d         -15.252 204.242 117.344  0.00  0.00    -0.231 N 
ATOM     20  H12  11 d         -14.927 204.028 118.258  0.00  0.00     0.174 HD
ATOM     21  H13  11 d         -16.100 203.842 117.018  0.00  0.00     0.174 HD
ENDROOT
TORSDOF 0
ENDMDL
MODEL 10
REMARK VINA RESULT:      -8.1      3.177      6.270
REMARK  0 active torsions:
REMARK  status: ('A' for Active; 'I' for Inactive)
REMARK       I    between atoms: C8_9  and  N3_19 
ROOT
ATOM      1  C1   11 d         -13.363 206.189 117.035  0.00  0.00     0.088 A 
ATOM      2  C2   11 d         -13.849 205.519 118.289  0.00  0.00    -0.007 A 
ATOM      3  C3   11 d         -14.799 204.464 118.284  0.00  0.00     0.014 A 
ATOM      4  C4   11 d         -15.224 203.868 119.481  0.00  0.00     0.001 A 
ATOM      5  C5   11 d         -14.715 204.308 120.708  0.00  0.00     0.000 A 
ATOM      6  C6   11 d         -13.777 205.346 120.739  0.00  0.00     0.001 A 
ATOM      7  C7   11 d         -13.349 205.945 119.545  0.00  0.00     0.014 A 
ATOM      8  N1   11 d         -12.444 207.194 117.152  0.00  0.00    -0.063 NA
ATOM      9  C8   11 d         -11.949 207.855 116.075  0.00  0.00     0.721 A 
ATOM     10  N2   11 d         -12.372 207.518 114.830  0.00  0.00    -0.063 NA
ATOM     11  C9   11 d         -13.288 206.528 114.611  0.00  0.00     0.088 A 
ATOM     12  C10  11 d         -13.691 206.229 113.195  0.00  0.00    -0.007 A 
ATOM     13  C11  11 d         -14.633 205.223 112.854  0.00  0.00     0.014 A 
ATOM     14  C12  11 d         -14.979 204.981 111.516  0.00  0.00     0.001 A 
ATOM     15  C13  11 d         -14.396 205.732 110.489  0.00  0.00     0.000 A 
ATOM     16  C14  11 d         -13.465 206.729 110.799  0.00  0.00     0.001 A 
ATOM     17  C15  11 d         -13.116 206.975 112.135  0.00  0.00     0.014 A 
ATOM     18  C16  11 d         -13.801 205.841 115.736  0.00  0.00     0.066 A 
ATOM     19  N3   11 d         -11.029 208.855 116.243  0.00  0.00    -0.231 N 
ATOM     20  H12  11 d         -10.720 209.102 117.154  0.00  0.00     0.174 HD
ATOM     21  H13  11 d         -10.668 209.338 115.454  0.00  0.00     0.174 HD
ENDROOT
TORSDOF 0
ENDMDL
MODEL 11
REMARK VINA RESULT:      -8.1      3.186      5.843
REMARK  0 active torsions:
REMARK  status: ('A' for Active; 'I' for Inactive)
REMARK       I    between atoms: C8_9  and  N3_19 
ROOT
ATOM      1  C1   11 d         -13.292 206.549 114.627  0.00  0.00     0.088 A 
ATOM      2  C2   11 d         -13.682 206.256 113.206  0.00  0.00    -0.007 A 
ATOM      3  C3   11 d         -14.612 205.244 112.852  0.00  0.00     0.014 A 
ATOM      4  C4   11 d         -14.946 205.007 111.509  0.00  0.00     0.001 A 
ATOM      5  C5   11 d         -14.361 205.769 110.492  0.00  0.00     0.000 A 
ATOM      6  C6   11 d         -13.441 206.772 110.815  0.00  0.00     0.001 A 
ATOM      7  C7   11 d         -13.105 207.014 112.156  0.00  0.00     0.014 A 
ATOM      8  N1   11 d         -12.388 207.547 114.859  0.00  0.00    -0.063 NA
ATOM      9  C8   11 d         -11.978 207.881 116.109  0.00  0.00     0.721 A 
ATOM     10  N2   11 d         -12.474 207.208 117.178  0.00  0.00    -0.063 NA
ATOM     11  C9   11 d         -13.381 206.194 117.048  0.00  0.00     0.088 A 
ATOM     12  C10  11 d         -13.871 205.511 118.294  0.00  0.00    -0.007 A 
ATOM     13  C11  11 d         -14.811 204.448 118.275  0.00  0.00     0.014 A 
ATOM     14  C12  11 d         -15.239 203.840 119.465  0.00  0.00     0.001 A 
ATOM     15  C13  11 d         -14.742 204.276 120.698  0.00  0.00     0.000 A 
ATOM     16  C14  11 d         -13.814 205.322 120.744  0.00  0.00     0.001 A 
ATOM     17  C15  11 d         -13.384 205.932 119.557  0.00  0.00     0.014 A 
ATOM     18  C16  11 d         -13.806 205.850 115.744  0.00  0.00     0.066 A 
ATOM     19  N3   11 d         -11.071 208.890 116.291  0.00  0.00    -0.231 N 
ATOM     20  H12  11 d         -10.707 209.382 115.508  0.00  0.00     0.174 HD
ATOM     21  H13  11 d         -10.771 209.132 117.206  0.00  0.00     0.174 HD
ENDROOT
TORSDOF 0
ENDMDL
MODEL 12
REMARK VINA RESULT:      -8.0      2.201      3.573
REMARK  0 active torsions:
REMARK  status: ('A' for Active; 'I' for Inactive)
REMARK       I    between atoms: C8_9  and  N3_19 
ROOT
ATOM      1  C1   11 d         -11.494 207.406 113.292  0.00  0.00     0.088 A 
ATOM      2  C2   11 d         -12.716 206.799 113.923  0.00  0.00    -0.007 A 
ATOM      3  C3   11 d         -12.850 206.610 115.324  0.00  0.00     0.014 A 
ATOM      4  C4   11 d         -14.010 206.039 115.868  0.00  0.00     0.001 A 
ATOM      5  C5   11 d         -15.061 205.644 115.032  0.00  0.00     0.000 A 
ATOM      6  C6   11 d         -14.952 205.819 113.648  0.00  0.00     0.001 A 
ATOM      7  C7   11 d         -13.794 206.391 113.099  0.00  0.00     0.014 A 
ATOM      8  N1   11 d         -11.467 207.545 111.933  0.00  0.00    -0.063 NA
ATOM      9  C8   11 d         -10.407 208.082 111.277  0.00  0.00     0.721 A 
ATOM     10  N2   11 d          -9.326 208.499 111.983  0.00  0.00    -0.063 NA
ATOM     11  C9   11 d          -9.258 208.402 113.344  0.00  0.00     0.088 A 
ATOM     12  C10  11 d          -8.016 208.894 114.034  0.00  0.00    -0.007 A 
ATOM     13  C11  11 d          -7.840 208.840 115.441  0.00  0.00     0.014 A 
ATOM     14  C12  11 d          -6.662 209.311 116.040  0.00  0.00     0.001 A 
ATOM     15  C13  11 d          -5.635 209.847 115.254  0.00  0.00     0.000 A 
ATOM     16  C14  11 d          -5.785 209.911 113.864  0.00  0.00     0.001 A 
ATOM     17  C15  11 d          -6.961 209.441 113.261  0.00  0.00     0.014 A 
ATOM     18  C16  11 d         -10.365 207.842 114.023  0.00  0.00     0.066 A 
ATOM     19  N3   11 d         -10.428 208.201 109.914  0.00  0.00    -0.231 N 
ATOM     20  H12  11 d         -11.219 207.894 109.397  0.00  0.00     0.174 HD
ATOM     21  H13  11 d          -9.651 208.593 109.436  0.00  0.00     0.174 HD
ENDROOT
TORSDOF 0
ENDMDL
MODEL 13
REMARK VINA RESULT:      -8.0      2.202      7.319
REMARK  0 active torsions:
REMARK  status: ('A' for Active; 'I' for Inactive)
REMARK       I    between atoms: C8_9  and  N3_19 
ROOT
ATOM      1  C1   11 d          -9.250 208.410 113.375  0.00  0.00     0.088 A 
ATOM      2  C2   11 d          -8.007 208.903 114.061  0.00  0.00    -0.007 A 
ATOM      3  C3   11 d          -7.827 208.847 115.468  0.00  0.00     0.014 A 
ATOM      4  C4   11 d          -6.648 209.320 116.065  0.00  0.00     0.001 A 
ATOM      5  C5   11 d          -5.625 209.859 115.276  0.00  0.00     0.000 A 
ATOM      6  C6   11 d          -5.780 209.925 113.887  0.00  0.00     0.001 A 
ATOM      7  C7   11 d          -6.956 209.452 113.286  0.00  0.00     0.014 A 
ATOM      8  N1   11 d          -9.322 208.508 112.014  0.00  0.00    -0.063 NA
ATOM      9  C8   11 d         -10.404 208.089 111.311  0.00  0.00     0.721 A 
ATOM     10  N2   11 d         -11.462 207.550 111.968  0.00  0.00    -0.063 NA
ATOM     11  C9   11 d         -11.485 207.410 113.327  0.00  0.00     0.088 A 
ATOM     12  C10  11 d         -12.704 206.801 113.961  0.00  0.00    -0.007 A 
ATOM     13  C11  11 d         -12.833 206.609 115.361  0.00  0.00     0.014 A 
ATOM     14  C12  11 d         -13.992 206.036 115.908  0.00  0.00     0.001 A 
ATOM     15  C13  11 d         -15.045 205.641 115.075  0.00  0.00     0.000 A 
ATOM     16  C14  11 d         -14.941 205.820 113.691  0.00  0.00     0.001 A 
ATOM     17  C15  11 d         -13.785 206.392 113.141  0.00  0.00     0.014 A 
ATOM     18  C16  11 d         -10.355 207.848 114.056  0.00  0.00     0.066 A 
ATOM     19  N3   11 d         -10.428 208.207 109.947  0.00  0.00    -0.231 N 
ATOM     20  H12  11 d          -9.654 208.602 109.466  0.00  0.00     0.174 HD
ATOM     21  H13  11 d         -11.221 207.901 109.434  0.00  0.00     0.174 HD
ENDROOT
TORSDOF 0
ENDMDL
MODEL 14
REMARK VINA RESULT:      -8.0      2.338      4.761
REMARK  0 active torsions:
REMARK  status: ('A' for Active; 'I' for Inactive)
REMARK       I    between atoms: C8_9  and  N3_19 
ROOT
ATOM      1  C1   11 d         -13.354 206.838 113.361  0.00  0.00     0.088 A 
ATOM      2  C2   11 d         -14.445 206.822 112.328  0.00  0.00    -0.007 A 
ATOM      3  C3   11 d         -15.792 206.491 112.631  0.00  0.00     0.014 A 
ATOM      4  C4   11 d         -16.779 206.490 111.633  0.00  0.00     0.001 A 
ATOM      5  C5   11 d         -16.447 206.816 110.313  0.00  0.00     0.000 A 
ATOM      6  C6   11 d         -15.126 207.145 109.989  0.00  0.00     0.001 A 
ATOM      7  C7   11 d         -14.137 207.149 110.984  0.00  0.00     0.014 A 
ATOM      8  N1   11 d         -12.090 207.173 112.963  0.00  0.00    -0.063 NA
ATOM      9  C8   11 d         -11.043 207.213 113.826  0.00  0.00     0.721 A 
ATOM     10  N2   11 d         -11.242 206.913 115.134  0.00  0.00    -0.063 NA
ATOM     11  C9   11 d         -12.469 206.566 115.628  0.00  0.00     0.088 A 
ATOM     12  C10  11 d         -12.586 206.252 117.092  0.00  0.00    -0.007 A 
ATOM     13  C11  11 d         -13.809 205.881 117.709  0.00  0.00     0.014 A 
ATOM     14  C12  11 d         -13.870 205.596 119.081  0.00  0.00     0.001 A 
ATOM     15  C13  11 d         -12.716 205.674 119.870  0.00  0.00     0.000 A 
ATOM     16  C14  11 d         -11.498 206.038 119.286  0.00  0.00     0.001 A 
ATOM     17  C15  11 d         -11.433 206.324 117.915  0.00  0.00     0.014 A 
ATOM     18  C16  11 d         -13.557 206.525 114.725  0.00  0.00     0.066 A 
ATOM     19  N3   11 d          -9.795 207.556 113.380  0.00  0.00    -0.231 N 
ATOM     20  H12  11 d          -9.649 207.774 112.422  0.00  0.00     0.174 HD
ATOM     21  H13  11 d          -9.030 207.584 114.012  0.00  0.00     0.174 HD
ENDROOT
TORSDOF 0
ENDMDL
MODEL 15
REMARK VINA RESULT:      -8.0      2.312      6.556
REMARK  0 active torsions:
REMARK  status: ('A' for Active; 'I' for Inactive)
REMARK       I    between atoms: C8_9  and  N3_19 
ROOT
ATOM      1  C1   11 d         -12.407 206.608 115.591  0.00  0.00     0.088 A 
ATOM      2  C2   11 d         -12.511 206.296 117.057  0.00  0.00    -0.007 A 
ATOM      3  C3   11 d         -13.729 205.923 117.684  0.00  0.00     0.014 A 
ATOM      4  C4   11 d         -13.777 205.641 119.058  0.00  0.00     0.001 A 
ATOM      5  C5   11 d         -12.618 205.725 119.837  0.00  0.00     0.000 A 
ATOM      6  C6   11 d         -11.405 206.091 119.242  0.00  0.00     0.001 A 
ATOM      7  C7   11 d         -11.352 206.373 117.868  0.00  0.00     0.014 A 
ATOM      8  N1   11 d         -11.185 206.956 115.087  0.00  0.00    -0.063 NA
ATOM      9  C8   11 d         -10.998 207.254 113.776  0.00  0.00     0.721 A 
ATOM     10  N2   11 d         -12.052 207.210 112.922  0.00  0.00    -0.063 NA
ATOM     11  C9   11 d         -13.311 206.874 113.331  0.00  0.00     0.088 A 
ATOM     12  C10  11 d         -14.412 206.853 112.307  0.00  0.00    -0.007 A 
ATOM     13  C11  11 d         -15.755 206.519 112.622  0.00  0.00     0.014 A 
ATOM     14  C12  11 d         -16.749 206.514 111.632  0.00  0.00     0.001 A 
ATOM     15  C13  11 d         -16.429 206.839 110.309  0.00  0.00     0.000 A 
ATOM     16  C14  11 d         -15.113 207.172 109.973  0.00  0.00     0.001 A 
ATOM     17  C15  11 d         -14.116 207.178 110.960  0.00  0.00     0.014 A 
ATOM     18  C16  11 d         -13.503 206.564 114.697  0.00  0.00     0.066 A 
ATOM     19  N3   11 d          -9.753 207.596 113.318  0.00  0.00    -0.231 N 
ATOM     20  H12  11 d          -8.983 207.629 113.943  0.00  0.00     0.174 HD
ATOM     21  H13  11 d          -9.618 207.814 112.359  0.00  0.00     0.174 HD
ENDROOT
TORSDOF 0
ENDMDL
MODEL 16
REMARK VINA RESULT:      -8.0      2.279      7.232
REMARK  0 active torsions:
REMARK  status: ('A' for Active; 'I' for Inactive)
REMARK       I    between atoms: C8_9  and  N3_19 
ROOT
ATOM      1  C1   11 d         -10.735 207.900 112.719  0.00  0.00     0.088 A 
ATOM      2  C2   11 d          -9.700 208.323 113.722  0.00  0.00    -0.007 A 
ATOM      3  C3   11 d          -9.939 208.338 115.122  0.00  0.00     0.014 A 
ATOM      4  C4   11 d          -8.940 208.742 116.022  0.00  0.00     0.001 A 
ATOM      5  C5   11 d          -7.685 209.140 115.549  0.00  0.00     0.000 A 
ATOM      6  C6   11 d          -7.425 209.134 114.175  0.00  0.00     0.001 A 
ATOM      7  C7   11 d          -8.420 208.731 113.271  0.00  0.00     0.014 A 
ATOM      8  N1   11 d         -10.401 207.921 111.394  0.00  0.00    -0.063 NA
ATOM      9  C8   11 d         -11.271 207.555 110.419  0.00  0.00     0.721 A 
ATOM     10  N2   11 d         -12.523 207.153 110.755  0.00  0.00    -0.063 NA
ATOM     11  C9   11 d         -12.951 207.099 112.052  0.00  0.00     0.088 A 
ATOM     12  C10  11 d         -14.356 206.639 112.321  0.00  0.00    -0.007 A 
ATOM     13  C11  11 d         -14.902 206.545 113.627  0.00  0.00     0.014 A 
ATOM     14  C12  11 d         -16.221 206.110 113.830  0.00  0.00     0.001 A 
ATOM     15  C13  11 d         -17.023 205.758 112.738  0.00  0.00     0.000 A 
ATOM     16  C14  11 d         -16.508 205.842 111.441  0.00  0.00     0.001 A 
ATOM     17  C15  11 d         -15.190 206.276 111.234  0.00  0.00     0.014 A 
ATOM     18  C16  11 d         -12.041 207.480 113.065  0.00  0.00     0.066 A 
ATOM     19  N3   11 d         -10.889 207.592 109.105  0.00  0.00    -0.231 N 
ATOM     20  H12  11 d          -9.973 207.888 108.859  0.00  0.00     0.174 HD
ATOM     21  H13  11 d         -11.527 207.325 108.392  0.00  0.00     0.174 HD
ENDROOT
TORSDOF 0
ENDMDL
MODEL 17
REMARK VINA RESULT:      -7.8      2.479      6.654
REMARK  0 active torsions:
REMARK  status: ('A' for Active; 'I' for Inactive)
REMARK       I    between atoms: C8_9  and  N3_19 
ROOT
ATOM      1  C1   11 d         -10.947 207.748 117.122  0.00  0.00     0.088 A 
ATOM      2  C2   11 d          -9.628 208.062 117.770  0.00  0.00    -0.007 A 
ATOM      3  C3   11 d          -8.408 208.133 117.047  0.00  0.00     0.014 A 
ATOM      4  C4   11 d          -7.199 208.428 117.696  0.00  0.00     0.001 A 
ATOM      5  C5   11 d          -7.178 208.659 119.076  0.00  0.00     0.000 A 
ATOM      6  C6   11 d          -8.367 208.595 119.811  0.00  0.00     0.001 A 
ATOM      7  C7   11 d          -9.578 208.300 119.166  0.00  0.00     0.014 A 
ATOM      8  N1   11 d         -12.063 207.707 117.910  0.00  0.00    -0.063 NA
ATOM      9  C8   11 d         -13.295 207.432 117.412  0.00  0.00     0.721 A 
ATOM     10  N2   11 d         -13.441 207.187 116.085  0.00  0.00    -0.063 NA
ATOM     11  C9   11 d         -12.386 207.206 115.217  0.00  0.00     0.088 A 
ATOM     12  C10  11 d         -12.651 206.922 113.765  0.00  0.00    -0.007 A 
ATOM     13  C11  11 d         -11.631 206.915 112.779  0.00  0.00     0.014 A 
ATOM     14  C12  11 d         -11.927 206.644 111.434  0.00  0.00     0.001 A 
ATOM     15  C13  11 d         -13.243 206.376 111.042  0.00  0.00     0.000 A 
ATOM     16  C14  11 d         -14.267 206.377 111.995  0.00  0.00     0.001 A 
ATOM     17  C15  11 d         -13.976 206.647 113.340  0.00  0.00     0.014 A 
ATOM     18  C16  11 d         -11.104 207.493 115.740  0.00  0.00     0.066 A 
ATOM     19  N3   11 d         -14.383 207.403 118.242  0.00  0.00    -0.231 N 
ATOM     20  H12  11 d         -14.276 207.581 119.213  0.00  0.00     0.174 HD
ATOM     21  H13  11 d         -15.284 207.201 117.876  0.00  0.00     0.174 HD
ENDROOT
TORSDOF 0
ENDMDL
MODEL 18
REMARK VINA RESULT:      -7.2      5.637      8.354
REMARK  0 active torsions:
REMARK  status: ('A' for Active; 'I' for Inactive)
REMARK       I    between atoms: C8_9  and  N3_19 
ROOT
ATOM      1  C1   11 d          -5.571 209.287 115.295  0.00  0.00     0.088 A 
ATOM      2  C2   11 d          -6.616 209.212 114.217  0.00  0.00    -0.007 A 
ATOM      3  C3   11 d          -7.877 209.857 114.317  0.00  0.00     0.014 A 
ATOM      4  C4   11 d          -8.823 209.759 113.285  0.00  0.00     0.001 A 
ATOM      5  C5   11 d          -8.536 209.018 112.133  0.00  0.00     0.000 A 
ATOM      6  C6   11 d          -7.300 208.373 112.011  0.00  0.00     0.001 A 
ATOM      7  C7   11 d          -6.351 208.469 113.041  0.00  0.00     0.014 A 
ATOM      8  N1   11 d          -4.389 208.630 115.097  0.00  0.00    -0.063 NA
ATOM      9  C8   11 d          -3.389 208.642 116.014  0.00  0.00     0.721 A 
ATOM     10  N2   11 d          -3.553 209.326 117.175  0.00  0.00    -0.063 NA
ATOM     11  C9   11 d          -4.698 210.013 117.464  0.00  0.00     0.088 A 
ATOM     12  C10  11 d          -4.783 210.740 118.777  0.00  0.00    -0.007 A 
ATOM     13  C11  11 d          -5.923 211.483 119.178  0.00  0.00     0.014 A 
ATOM     14  C12  11 d          -5.956 212.145 120.414  0.00  0.00     0.001 A 
ATOM     15  C13  11 d          -4.856 212.084 121.277  0.00  0.00     0.000 A 
ATOM     16  C14  11 d          -3.720 211.358 120.905  0.00  0.00     0.001 A 
ATOM     17  C15  11 d          -3.683 210.695 119.670  0.00  0.00     0.014 A 
ATOM     18  C16  11 d          -5.738 209.998 116.505  0.00  0.00     0.066 A 
ATOM     19  N3   11 d          -2.221 207.970 115.770  0.00  0.00    -0.231 N 
ATOM     20  H12  11 d          -2.102 207.468 114.921  0.00  0.00     0.174 HD
ATOM     21  H13  11 d          -1.491 207.979 116.443  0.00  0.00     0.174 HD
ENDROOT
TORSDOF 0
ENDMDL
MODEL 19
REMARK VINA RESULT:      -7.0      3.347      4.939
REMARK  0 active torsions:
REMARK  status: ('A' for Active; 'I' for Inactive)
REMARK       I    between atoms: C8_9  and  N3_19 
ROOT
ATOM      1  C1   11 d         -11.972 207.458 115.567  0.00  0.00     0.088 A 
ATOM      2  C2   11 d         -13.224 207.120 114.807  0.00  0.00    -0.007 A 
ATOM      3  C3   11 d         -14.213 206.231 115.304  0.00  0.00     0.014 A 
ATOM      4  C4   11 d         -15.367 205.945 114.558  0.00  0.00     0.001 A 
ATOM      5  C5   11 d         -15.561 206.536 113.304  0.00  0.00     0.000 A 
ATOM      6  C6   11 d         -14.601 207.415 112.794  0.00  0.00     0.001 A 
ATOM      7  C7   11 d         -13.445 207.705 113.536  0.00  0.00     0.014 A 
ATOM      8  N1   11 d         -11.084 208.328 114.999  0.00  0.00    -0.063 NA
ATOM      9  C8   11 d          -9.929 208.691 115.611  0.00  0.00     0.721 A 
ATOM     10  N2   11 d          -9.629 208.179 116.832  0.00  0.00    -0.063 NA
ATOM     11  C9   11 d         -10.452 207.303 117.480  0.00  0.00     0.088 A 
ATOM     12  C10  11 d         -10.031 206.794 118.830  0.00  0.00    -0.007 A 
ATOM     13  C11  11 d         -10.809 205.881 119.590  0.00  0.00     0.014 A 
ATOM     14  C12  11 d         -10.374 205.433 120.847  0.00  0.00     0.001 A 
ATOM     15  C13  11 d          -9.158 205.883 121.374  0.00  0.00     0.000 A 
ATOM     16  C14  11 d          -8.374 206.782 120.645  0.00  0.00     0.001 A 
ATOM     17  C15  11 d          -8.804 207.233 119.389  0.00  0.00     0.014 A 
ATOM     18  C16  11 d         -11.656 206.928 116.839  0.00  0.00     0.066 A 
ATOM     19  N3   11 d          -9.071 209.567 115.002  0.00  0.00    -0.231 N 
ATOM     20  H12  11 d          -9.290 209.941 114.108  0.00  0.00     0.174 HD
ATOM     21  H13  11 d          -8.225 209.831 115.451  0.00  0.00     0.174 HD
ENDROOT
TORSDOF 0
ENDMDL
MODEL 20
REMARK VINA RESULT:      -7.0      3.372      7.390
REMARK  0 active torsions:
REMARK  status: ('A' for Active; 'I' for Inactive)
REMARK       I    between atoms: C8_9  and  N3_19 
ROOT
ATOM      1  C1   11 d         -10.438 207.291 117.514  0.00  0.00     0.088 A 
ATOM      2  C2   11 d         -10.012 206.783 118.862  0.00  0.00    -0.007 A 
ATOM      3  C3   11 d         -10.788 205.872 119.626  0.00  0.00     0.014 A 
ATOM      4  C4   11 d         -10.349 205.425 120.882  0.00  0.00     0.001 A 
ATOM      5  C5   11 d          -9.132 205.876 121.405  0.00  0.00     0.000 A 
ATOM      6  C6   11 d          -8.349 206.774 120.672  0.00  0.00     0.001 A 
ATOM      7  C7   11 d          -8.783 207.223 119.415  0.00  0.00     0.014 A 
ATOM      8  N1   11 d          -9.615 208.166 116.861  0.00  0.00    -0.063 NA
ATOM      9  C8   11 d          -9.919 208.675 115.640  0.00  0.00     0.721 A 
ATOM     10  N2   11 d         -11.077 208.314 115.033  0.00  0.00    -0.063 NA
ATOM     11  C9   11 d         -11.964 207.446 115.605  0.00  0.00     0.088 A 
ATOM     12  C10  11 d         -13.219 207.108 114.851  0.00  0.00    -0.007 A 
ATOM     13  C11  11 d         -14.207 206.220 115.351  0.00  0.00     0.014 A 
ATOM     14  C12  11 d         -15.364 205.935 114.611  0.00  0.00     0.001 A 
ATOM     15  C13  11 d         -15.563 206.525 113.357  0.00  0.00     0.000 A 
ATOM     16  C14  11 d         -14.604 207.403 112.842  0.00  0.00     0.001 A 
ATOM     17  C15  11 d         -13.446 207.691 113.579  0.00  0.00     0.014 A 
ATOM     18  C16  11 d         -11.644 206.917 116.877  0.00  0.00     0.066 A 
ATOM     19  N3   11 d          -9.061 209.548 115.025  0.00  0.00    -0.231 N 
ATOM     20  H12  11 d          -8.214 209.813 115.470  0.00  0.00     0.174 HD
ATOM     21  H13  11 d          -9.285 209.921 114.132  0.00  0.00     0.174 HD
ENDROOT
TORSDOF 0
ENDMDL
