MODEL 1
REMARK VINA RESULT:      -9.4      0.000      0.000
REMARK  4 active torsions:
REMARK  status: ('A' for Active; 'I' for Inactive)
REMARK    1  A    between atoms: C15_17  and  C16_19 
REMARK    2  A    between atoms: C16_19  and  C17_20 
REMARK    3  A    between atoms: C19_23  and  C20_24 
REMARK    4  A    between atoms: C20_24  and  C21_25 
ROOT
ATOM      1  C1   11 d         -12.249 207.960 115.597  0.00  0.00     0.047 A 
ATOM      2  C2   11 d         -11.178 208.352 114.647  0.00  0.00    -0.009 A 
ATOM      3  C3   11 d         -11.106 207.859 113.315  0.00  0.00    -0.015 A 
ATOM      4  C4   11 d         -10.074 208.335 112.453  0.00  0.00    -0.025 A 
ATOM      5  C5   11 d          -9.131 209.263 112.931  0.00  0.00     0.012 A 
ATOM      6  C6   11 d          -9.193 209.716 114.252  0.00  0.00     0.002 A 
ATOM      7  C7   11 d         -10.206 209.263 115.104  0.00  0.00     0.013 A 
ATOM      8  C8   11 d          -9.993 207.869 111.126  0.00  0.00     0.012 A 
ATOM      9  C9   11 d         -10.912 206.927 110.649  0.00  0.00     0.001 A 
ATOM     10  C10  11 d         -11.913 206.434 111.494  0.00  0.00     0.001 A 
ATOM     11  C11  11 d         -12.008 206.890 112.816  0.00  0.00     0.013 A 
ATOM     12  C12  11 d         -12.079 207.355 116.829  0.00  0.00     0.166 A 
ATOM     13  N1   11 d         -13.292 207.173 117.382  0.00  0.00    -0.201 N 
ATOM     14  C13  11 d         -13.435 206.583 118.605  0.00  0.00     0.270 A 
ATOM     15  O1   11 d         -14.571 206.427 119.120  0.00  0.00    -0.266 OA
ATOM     16  C14  11 d         -12.282 206.150 119.282  0.00  0.00     0.103 A 
ATOM     17  C15  11 d         -11.015 206.327 118.670  0.00  0.00     0.042 A 
ATOM     18  N2   11 d         -10.939 206.957 117.454  0.00  0.00    -0.233 NA
ATOM     19  N3   11 d         -14.214 207.638 116.586  0.00  0.00    -0.292 N 
ATOM     20  C19  11 d         -13.629 208.145 115.472  0.00  0.00     0.045 A 
ATOM     21  H16  11 d         -15.248 207.632 116.781  0.00  0.00     0.187 HD
ENDROOT
BRANCH  20  22
ATOM     22  C20  11 d         -14.369 208.800 114.336  0.00  0.00     0.098 C 
BRANCH  22  23
ATOM     23  C21  11 d         -14.987 207.768 113.425  0.00  0.00    -0.052 A 
ATOM     24  C22  11 d         -15.409 206.520 113.931  0.00  0.00     0.007 A 
ATOM     25  C23  11 d         -15.978 205.565 113.076  0.00  0.00     0.001 A 
ATOM     26  C24  11 d         -16.133 205.845 111.710  0.00  0.00     0.000 A 
ATOM     27  C25  11 d         -15.713 207.081 111.197  0.00  0.00     0.001 A 
ATOM     28  C26  11 d         -15.142 208.038 112.049  0.00  0.00     0.007 A 
ENDBRANCH  22  23
ENDBRANCH  20  22
BRANCH  17  29
ATOM     29  C16  11 d          -9.719 205.964 119.357  0.00  0.00     0.059 C 
BRANCH  29  30
ATOM     30  C17  11 d          -8.554 206.936 119.111  0.00  0.00     0.002 C 
ATOM     31  C18  11 d          -8.685 208.214 119.939  0.00  0.00     0.005 C 
ENDBRANCH  29  30
ENDBRANCH  17  29
TORSDOF 4
ENDMDL
MODEL 2
REMARK VINA RESULT:      -9.1      2.648      7.232
REMARK  4 active torsions:
REMARK  status: ('A' for Active; 'I' for Inactive)
REMARK    1  A    between atoms: C15_17  and  C16_19 
REMARK    2  A    between atoms: C16_19  and  C17_20 
REMARK    3  A    between atoms: C19_23  and  C20_24 
REMARK    4  A    between atoms: C20_24  and  C21_25 
ROOT
ATOM      1  C1   11 d         -11.416 208.169 115.237  0.00  0.00     0.047 A 
ATOM      2  C2   11 d         -12.758 207.545 115.137  0.00  0.00    -0.009 A 
ATOM      3  C3   11 d         -13.095 206.322 115.782  0.00  0.00    -0.015 A 
ATOM      4  C4   11 d         -14.428 205.825 115.679  0.00  0.00    -0.025 A 
ATOM      5  C5   11 d         -15.384 206.531 114.928  0.00  0.00     0.012 A 
ATOM      6  C6   11 d         -15.035 207.716 114.272  0.00  0.00     0.002 A 
ATOM      7  C7   11 d         -13.732 208.218 114.374  0.00  0.00     0.013 A 
ATOM      8  C8   11 d         -14.784 204.623 116.321  0.00  0.00     0.012 A 
ATOM      9  C9   11 d         -13.831 203.901 117.049  0.00  0.00     0.001 A 
ATOM     10  C10  11 d         -12.514 204.366 117.136  0.00  0.00     0.001 A 
ATOM     11  C11  11 d         -12.145 205.562 116.505  0.00  0.00     0.013 A 
ATOM     12  C12  11 d         -10.566 208.471 114.188  0.00  0.00     0.166 A 
ATOM     13  N1   11 d          -9.454 209.033 114.694  0.00  0.00    -0.201 N 
ATOM     14  C13  11 d          -8.426 209.428 113.886  0.00  0.00     0.270 A 
ATOM     15  O1   11 d          -7.394 209.963 114.365  0.00  0.00    -0.266 OA
ATOM     16  C14  11 d          -8.543 209.225 112.500  0.00  0.00     0.103 A 
ATOM     17  C15  11 d          -9.713 208.607 111.991  0.00  0.00     0.042 A 
ATOM     18  N2   11 d         -10.721 208.263 112.853  0.00  0.00    -0.233 NA
ATOM     19  N3   11 d          -9.552 209.120 115.991  0.00  0.00    -0.292 N 
ATOM     20  C19  11 d         -10.748 208.610 116.383  0.00  0.00     0.045 A 
ATOM     21  H16  11 d          -8.826 209.529 116.633  0.00  0.00     0.187 HD
ENDROOT
BRANCH  20  22
ATOM     22  C20  11 d         -11.236 208.564 117.807  0.00  0.00     0.098 C 
BRANCH  22  23
ATOM     23  C21  11 d         -10.165 208.040 118.731  0.00  0.00    -0.052 A 
ATOM     24  C22  11 d         -10.066 206.660 119.009  0.00  0.00     0.007 A 
ATOM     25  C23  11 d          -9.069 206.182 119.874  0.00  0.00     0.001 A 
ATOM     26  C24  11 d          -8.164 207.075 120.468  0.00  0.00     0.000 A 
ATOM     27  C25  11 d          -8.258 208.449 120.200  0.00  0.00     0.001 A 
ATOM     28  C26  11 d          -9.254 208.930 119.337  0.00  0.00     0.007 A 
ENDBRANCH  22  23
ENDBRANCH  20  22
BRANCH  17  29
ATOM     29  C16  11 d          -9.958 208.419 110.511  0.00  0.00     0.059 C 
BRANCH  29  30
ATOM     30  C17  11 d         -11.004 207.352 110.152  0.00  0.00     0.002 C 
ATOM     31  C18  11 d         -12.112 207.908 109.258  0.00  0.00     0.005 C 
ENDBRANCH  29  30
ENDBRANCH  17  29
TORSDOF 4
ENDMDL
MODEL 3
REMARK VINA RESULT:      -8.9      1.001      1.472
REMARK  4 active torsions:
REMARK  status: ('A' for Active; 'I' for Inactive)
REMARK    1  A    between atoms: C15_17  and  C16_19 
REMARK    2  A    between atoms: C16_19  and  C17_20 
REMARK    3  A    between atoms: C19_23  and  C20_24 
REMARK    4  A    between atoms: C20_24  and  C21_25 
ROOT
ATOM      1  C1   11 d         -11.413 208.262 115.539  0.00  0.00     0.047 A 
ATOM      2  C2   11 d         -10.562 208.628 114.382  0.00  0.00    -0.009 A 
ATOM      3  C3   11 d         -10.742 208.080 113.082  0.00  0.00    -0.015 A 
ATOM      4  C4   11 d          -9.913 208.534 112.014  0.00  0.00    -0.025 A 
ATOM      5  C5   11 d          -8.916 209.496 112.258  0.00  0.00     0.012 A 
ATOM      6  C6   11 d          -8.727 210.005 113.547  0.00  0.00     0.002 A 
ATOM      7  C7   11 d          -9.540 209.574 114.600  0.00  0.00     0.013 A 
ATOM      8  C8   11 d         -10.085 208.013 110.716  0.00  0.00     0.012 A 
ATOM      9  C9   11 d         -11.058 207.036 110.470  0.00  0.00     0.001 A 
ATOM     10  C10  11 d         -11.860 206.565 111.515  0.00  0.00     0.001 A 
ATOM     11  C11  11 d         -11.702 207.076 112.811  0.00  0.00     0.013 A 
ATOM     12  C12  11 d         -10.988 207.713 116.737  0.00  0.00     0.166 A 
ATOM     13  N1   11 d         -12.063 207.537 117.526  0.00  0.00    -0.201 N 
ATOM     14  C13  11 d         -11.947 206.998 118.775  0.00  0.00     0.270 A 
ATOM     15  O1   11 d         -12.955 206.846 119.511  0.00  0.00    -0.266 OA
ATOM     16  C14  11 d         -10.673 206.612 119.226  0.00  0.00     0.103 A 
ATOM     17  C15  11 d          -9.557 206.782 118.368  0.00  0.00     0.042 A 
ATOM     18  N2   11 d          -9.738 207.360 117.138  0.00  0.00    -0.233 NA
ATOM     19  N3   11 d         -13.136 207.952 116.912  0.00  0.00    -0.292 N 
ATOM     20  C19  11 d         -12.795 208.420 115.684  0.00  0.00     0.045 A 
ATOM     21  H16  11 d         -14.110 207.938 117.308  0.00  0.00     0.187 HD
ENDROOT
BRANCH  20  22
ATOM     22  C20  11 d         -13.761 209.013 114.693  0.00  0.00     0.098 C 
BRANCH  22  23
ATOM     23  C21  11 d         -14.535 207.934 113.978  0.00  0.00    -0.052 A 
ATOM     24  C22  11 d         -14.780 208.022 112.591  0.00  0.00     0.007 A 
ATOM     25  C23  11 d         -15.506 207.015 111.935  0.00  0.00     0.001 A 
ATOM     26  C24  11 d         -15.992 205.914 112.655  0.00  0.00     0.000 A 
ATOM     27  C25  11 d         -15.757 205.820 114.035  0.00  0.00     0.001 A 
ATOM     28  C26  11 d         -15.033 206.825 114.694  0.00  0.00     0.007 A 
ENDBRANCH  22  23
ENDBRANCH  20  22
BRANCH  17  29
ATOM     29  C16  11 d          -8.142 206.469 118.797  0.00  0.00     0.059 C 
BRANCH  29  30
ATOM     30  C17  11 d          -7.975 206.102 120.280  0.00  0.00     0.002 C 
ATOM     31  C18  11 d          -6.515 206.162 120.727  0.00  0.00     0.005 C 
ENDBRANCH  29  30
ENDBRANCH  17  29
TORSDOF 4
ENDMDL
MODEL 4
REMARK VINA RESULT:      -8.8      2.161      3.202
REMARK  4 active torsions:
REMARK  status: ('A' for Active; 'I' for Inactive)
REMARK    1  A    between atoms: C15_17  and  C16_19 
REMARK    2  A    between atoms: C16_19  and  C17_20 
REMARK    3  A    between atoms: C19_23  and  C20_24 
REMARK    4  A    between atoms: C20_24  and  C21_25 
ROOT
ATOM      1  C1   11 d         -10.153 208.510 115.625  0.00  0.00     0.047 A 
ATOM      2  C2   11 d          -9.917 208.684 114.172  0.00  0.00    -0.009 A 
ATOM      3  C3   11 d         -10.567 207.897 113.181  0.00  0.00    -0.015 A 
ATOM      4  C4   11 d         -10.323 208.173 111.803  0.00  0.00    -0.025 A 
ATOM      5  C5   11 d          -9.430 209.197 111.438  0.00  0.00     0.012 A 
ATOM      6  C6   11 d          -8.773 209.944 112.421  0.00  0.00     0.002 A 
ATOM      7  C7   11 d          -9.012 209.688 113.776  0.00  0.00     0.013 A 
ATOM      8  C8   11 d         -10.967 207.414 110.806  0.00  0.00     0.012 A 
ATOM      9  C9   11 d         -11.837 206.376 111.160  0.00  0.00     0.001 A 
ATOM     10  C10  11 d         -12.065 206.080 112.509  0.00  0.00     0.001 A 
ATOM     11  C11  11 d         -11.433 206.828 113.512  0.00  0.00     0.013 A 
ATOM     12  C12  11 d          -9.204 208.209 116.587  0.00  0.00     0.166 A 
ATOM     13  N1   11 d          -9.819 208.145 117.782  0.00  0.00    -0.201 N 
ATOM     14  C13  11 d          -9.127 207.852 118.922  0.00  0.00     0.270 A 
ATOM     15  O1   11 d          -9.705 207.806 120.037  0.00  0.00    -0.266 OA
ATOM     16  C14  11 d          -7.747 207.602 118.826  0.00  0.00     0.103 A 
ATOM     17  C15  11 d          -7.125 207.648 117.553  0.00  0.00     0.042 A 
ATOM     18  N2   11 d          -7.871 207.980 116.452  0.00  0.00    -0.233 NA
ATOM     19  N3   11 d         -11.089 208.402 117.640  0.00  0.00    -0.292 N 
ATOM     20  C19  11 d         -11.353 208.645 116.331  0.00  0.00     0.045 A 
ATOM     21  H16  11 d         -11.797 208.429 118.418  0.00  0.00     0.187 HD
ENDROOT
BRANCH  20  22
ATOM     22  C20  11 d         -12.706 209.009 115.782  0.00  0.00     0.098 C 
BRANCH  22  23
ATOM     23  C21  11 d         -13.557 207.780 115.574  0.00  0.00    -0.052 A 
ATOM     24  C22  11 d         -13.360 206.627 116.362  0.00  0.00     0.007 A 
ATOM     25  C23  11 d         -14.153 205.487 116.160  0.00  0.00     0.001 A 
ATOM     26  C24  11 d         -15.148 205.488 115.171  0.00  0.00     0.000 A 
ATOM     27  C25  11 d         -15.348 206.629 114.380  0.00  0.00     0.001 A 
ATOM     28  C26  11 d         -14.556 207.769 114.579  0.00  0.00     0.007 A 
ENDBRANCH  22  23
ENDBRANCH  20  22
BRANCH  17  29
ATOM     29  C16  11 d          -5.636 207.469 117.366  0.00  0.00     0.059 C 
BRANCH  29  30
ATOM     30  C17  11 d          -5.139 207.595 115.917  0.00  0.00     0.002 C 
ATOM     31  C18  11 d          -4.376 208.897 115.680  0.00  0.00     0.005 C 
ENDBRANCH  29  30
ENDBRANCH  17  29
TORSDOF 4
ENDMDL
MODEL 5
REMARK VINA RESULT:      -8.2      3.704      6.651
REMARK  4 active torsions:
REMARK  status: ('A' for Active; 'I' for Inactive)
REMARK    1  A    between atoms: C15_17  and  C16_19 
REMARK    2  A    between atoms: C16_19  and  C17_20 
REMARK    3  A    between atoms: C19_23  and  C20_24 
REMARK    4  A    between atoms: C20_24  and  C21_25 
ROOT
ATOM      1  C1   11 d          -8.939 208.780 113.133  0.00  0.00     0.047 A 
ATOM      2  C2   11 d          -9.940 208.323 112.138  0.00  0.00    -0.009 A 
ATOM      3  C3   11 d         -10.943 207.358 112.434  0.00  0.00    -0.015 A 
ATOM      4  C4   11 d         -11.901 207.021 111.432  0.00  0.00    -0.025 A 
ATOM      5  C5   11 d         -11.832 207.623 110.163  0.00  0.00     0.012 A 
ATOM      6  C6   11 d         -10.823 208.548 109.874  0.00  0.00     0.002 A 
ATOM      7  C7   11 d          -9.884 208.893 110.851  0.00  0.00     0.013 A 
ATOM      8  C8   11 d         -12.909 206.077 111.710  0.00  0.00     0.012 A 
ATOM      9  C9   11 d         -12.969 205.454 112.962  0.00  0.00     0.001 A 
ATOM     10  C10  11 d         -12.019 205.758 113.944  0.00  0.00     0.001 A 
ATOM     11  C11  11 d         -11.012 206.697 113.683  0.00  0.00     0.013 A 
ATOM     12  C12  11 d          -7.563 208.695 113.019  0.00  0.00     0.166 A 
ATOM     13  N1   11 d          -7.014 209.225 114.127  0.00  0.00    -0.201 N 
ATOM     14  C13  11 d          -5.660 209.269 114.297  0.00  0.00     0.270 A 
ATOM     15  O1   11 d          -5.153 209.776 115.330  0.00  0.00    -0.266 OA
ATOM     16  C14  11 d          -4.837 208.733 113.291  0.00  0.00     0.103 A 
ATOM     17  C15  11 d          -5.437 208.155 112.145  0.00  0.00     0.042 A 
ATOM     18  N2   11 d          -6.802 208.173 112.020  0.00  0.00    -0.233 NA
ATOM     19  N3   11 d          -7.952 209.653 114.925  0.00  0.00    -0.292 N 
ATOM     20  C19  11 d          -9.162 209.413 114.359  0.00  0.00     0.045 A 
ATOM     21  H16  11 d          -7.797 210.120 115.855  0.00  0.00     0.187 HD
ENDROOT
BRANCH  20  22
ATOM     22  C20  11 d         -10.485 209.795 114.969  0.00  0.00     0.098 C 
BRANCH  22  23
ATOM     23  C21  11 d         -10.886 208.820 116.049  0.00  0.00    -0.052 A 
ATOM     24  C22  11 d          -9.918 208.258 116.908  0.00  0.00     0.007 A 
ATOM     25  C23  11 d         -10.300 207.349 117.907  0.00  0.00     0.001 A 
ATOM     26  C24  11 d         -11.648 206.994 118.057  0.00  0.00     0.000 A 
ATOM     27  C25  11 d         -12.617 207.544 117.205  0.00  0.00     0.001 A 
ATOM     28  C26  11 d         -12.239 208.452 116.205  0.00  0.00     0.007 A 
ENDBRANCH  22  23
ENDBRANCH  20  22
BRANCH  17  29
ATOM     29  C16  11 d          -4.631 207.627 110.980  0.00  0.00     0.059 C 
BRANCH  29  30
ATOM     30  C17  11 d          -3.255 208.281 110.787  0.00  0.00     0.002 C 
ATOM     31  C18  11 d          -2.932 208.520 109.312  0.00  0.00     0.005 C 
ENDBRANCH  29  30
ENDBRANCH  17  29
TORSDOF 4
ENDMDL
MODEL 6
REMARK VINA RESULT:      -7.8      5.774      8.999
REMARK  4 active torsions:
REMARK  status: ('A' for Active; 'I' for Inactive)
REMARK    1  A    between atoms: C15_17  and  C16_19 
REMARK    2  A    between atoms: C16_19  and  C17_20 
REMARK    3  A    between atoms: C19_23  and  C20_24 
REMARK    4  A    between atoms: C20_24  and  C21_25 
ROOT
ATOM      1  C1   11 d          -4.896 208.776 115.481  0.00  0.00     0.047 A 
ATOM      2  C2   11 d          -5.384 208.290 116.795  0.00  0.00    -0.009 A 
ATOM      3  C3   11 d          -5.648 209.155 117.892  0.00  0.00    -0.015 A 
ATOM      4  C4   11 d          -6.171 208.606 119.101  0.00  0.00    -0.025 A 
ATOM      5  C5   11 d          -6.397 207.222 119.204  0.00  0.00     0.012 A 
ATOM      6  C6   11 d          -6.104 206.377 118.129  0.00  0.00     0.002 A 
ATOM      7  C7   11 d          -5.600 206.905 116.935  0.00  0.00     0.013 A 
ATOM      8  C8   11 d          -6.451 209.449 120.195  0.00  0.00     0.012 A 
ATOM      9  C9   11 d          -6.205 210.824 120.110  0.00  0.00     0.001 A 
ATOM     10  C10  11 d          -5.669 211.370 118.938  0.00  0.00     0.001 A 
ATOM     11  C11  11 d          -5.387 210.545 117.840  0.00  0.00     0.013 A 
ATOM     12  C12  11 d          -3.726 208.402 114.844  0.00  0.00     0.166 A 
ATOM     13  N1   11 d          -3.653 209.060 113.673  0.00  0.00    -0.201 N 
ATOM     14  C13  11 d          -2.592 208.894 112.830  0.00  0.00     0.270 A 
ATOM     15  O1   11 d          -2.536 209.504 111.732  0.00  0.00    -0.266 OA
ATOM     16  C14  11 d          -1.557 208.024 113.213  0.00  0.00     0.103 A 
ATOM     17  C15  11 d          -1.642 207.361 114.463  0.00  0.00     0.042 A 
ATOM     18  N2   11 d          -2.750 207.547 115.248  0.00  0.00    -0.233 NA
ATOM     19  N3   11 d          -4.707 209.813 113.522  0.00  0.00    -0.292 N 
ATOM     20  C19  11 d          -5.515 209.671 114.603  0.00  0.00     0.045 A 
ATOM     21  H16  11 d          -4.906 210.425 112.690  0.00  0.00     0.187 HD
ENDROOT
BRANCH  20  22
ATOM     22  C20  11 d          -6.843 210.360 114.778  0.00  0.00     0.098 C 
BRANCH  22  23
ATOM     23  C21  11 d          -7.951 209.577 114.116  0.00  0.00    -0.052 A 
ATOM     24  C22  11 d          -7.929 209.332 112.727  0.00  0.00     0.007 A 
ATOM     25  C23  11 d          -8.966 208.607 112.120  0.00  0.00     0.001 A 
ATOM     26  C24  11 d         -10.032 208.121 112.892  0.00  0.00     0.000 A 
ATOM     27  C25  11 d         -10.064 208.364 114.273  0.00  0.00     0.001 A 
ATOM     28  C26  11 d          -9.030 209.089 114.883  0.00  0.00     0.007 A 
ENDBRANCH  22  23
ENDBRANCH  20  22
BRANCH  17  29
ATOM     29  C16  11 d          -0.616 206.350 114.922  0.00  0.00     0.059 C 
BRANCH  29  30
ATOM     30  C17  11 d          -0.825 205.804 116.343  0.00  0.00     0.002 C 
ATOM     31  C18  11 d          -1.283 204.347 116.338  0.00  0.00     0.005 C 
ENDBRANCH  29  30
ENDBRANCH  17  29
TORSDOF 4
ENDMDL
MODEL 7
REMARK VINA RESULT:      -7.8      3.408      8.872
REMARK  4 active torsions:
REMARK  status: ('A' for Active; 'I' for Inactive)
REMARK    1  A    between atoms: C15_17  and  C16_19 
REMARK    2  A    between atoms: C16_19  and  C17_20 
REMARK    3  A    between atoms: C19_23  and  C20_24 
REMARK    4  A    between atoms: C20_24  and  C21_25 
ROOT
ATOM      1  C1   11 d          -7.711 208.102 117.581  0.00  0.00     0.047 A 
ATOM      2  C2   11 d          -7.799 207.334 118.847  0.00  0.00    -0.009 A 
ATOM      3  C3   11 d          -6.947 206.236 119.149  0.00  0.00    -0.015 A 
ATOM      4  C4   11 d          -7.064 205.592 120.416  0.00  0.00    -0.025 A 
ATOM      5  C5   11 d          -8.028 206.031 121.341  0.00  0.00     0.012 A 
ATOM      6  C6   11 d          -8.882 207.092 121.021  0.00  0.00     0.002 A 
ATOM      7  C7   11 d          -8.770 207.737 119.785  0.00  0.00     0.013 A 
ATOM      8  C8   11 d          -6.220 204.511 120.739  0.00  0.00     0.012 A 
ATOM      9  C9   11 d          -5.275 204.051 119.814  0.00  0.00     0.001 A 
ATOM     10  C10  11 d          -5.168 204.659 118.558  0.00  0.00     0.001 A 
ATOM     11  C11  11 d          -5.999 205.737 118.224  0.00  0.00     0.013 A 
ATOM     12  C12  11 d          -8.719 208.277 116.649  0.00  0.00     0.166 A 
ATOM     13  N1   11 d          -8.243 209.041 115.650  0.00  0.00    -0.201 N 
ATOM     14  C13  11 d          -9.019 209.372 114.577  0.00  0.00     0.270 A 
ATOM     15  O1   11 d          -8.571 210.096 113.651  0.00  0.00    -0.266 OA
ATOM     16  C14  11 d         -10.337 208.887 114.524  0.00  0.00     0.103 A 
ATOM     17  C15  11 d         -10.810 208.061 115.575  0.00  0.00     0.042 A 
ATOM     18  N2   11 d          -9.990 207.793 116.640  0.00  0.00    -0.233 NA
ATOM     19  N3   11 d          -7.006 209.372 115.897  0.00  0.00    -0.292 N 
ATOM     20  C19  11 d          -6.626 208.828 117.081  0.00  0.00     0.045 A 
ATOM     21  H16  11 d          -6.401 209.974 115.282  0.00  0.00     0.187 HD
ENDROOT
BRANCH  20  22
ATOM     22  C20  11 d          -5.274 209.016 117.716  0.00  0.00     0.098 C 
BRANCH  22  23
ATOM     23  C21  11 d          -5.377 209.839 118.977  0.00  0.00    -0.052 A 
ATOM     24  C22  11 d          -5.131 209.257 120.239  0.00  0.00     0.007 A 
ATOM     25  C23  11 d          -5.233 210.029 121.406  0.00  0.00     0.001 A 
ATOM     26  C24  11 d          -5.581 211.385 121.326  0.00  0.00     0.000 A 
ATOM     27  C25  11 d          -5.832 211.971 120.076  0.00  0.00     0.001 A 
ATOM     28  C26  11 d          -5.732 211.202 118.908  0.00  0.00     0.007 A 
ENDBRANCH  22  23
ENDBRANCH  20  22
BRANCH  17  29
ATOM     29  C16  11 d         -12.235 207.559 115.641  0.00  0.00     0.059 C 
BRANCH  29  30
ATOM     30  C17  11 d         -13.198 208.191 114.624  0.00  0.00     0.002 C 
ATOM     31  C18  11 d         -14.449 208.760 115.292  0.00  0.00     0.005 C 
ENDBRANCH  29  30
ENDBRANCH  17  29
TORSDOF 4
ENDMDL
MODEL 8
REMARK VINA RESULT:      -7.6      4.487      9.773
REMARK  4 active torsions:
REMARK  status: ('A' for Active; 'I' for Inactive)
REMARK    1  A    between atoms: C15_17  and  C16_19 
REMARK    2  A    between atoms: C16_19  and  C17_20 
REMARK    3  A    between atoms: C19_23  and  C20_24 
REMARK    4  A    between atoms: C20_24  and  C21_25 
ROOT
ATOM      1  C1   11 d          -6.140 208.491 117.148  0.00  0.00     0.047 A 
ATOM      2  C2   11 d          -7.125 207.842 118.048  0.00  0.00    -0.009 A 
ATOM      3  C3   11 d          -6.834 206.668 118.798  0.00  0.00    -0.015 A 
ATOM      4  C4   11 d          -7.823 206.146 119.683  0.00  0.00    -0.025 A 
ATOM      5  C5   11 d          -9.076 206.777 119.788  0.00  0.00     0.012 A 
ATOM      6  C6   11 d          -9.362 207.912 119.023  0.00  0.00     0.002 A 
ATOM      7  C7   11 d          -8.396 208.439 118.158  0.00  0.00     0.013 A 
ATOM      8  C8   11 d          -7.550 204.992 120.444  0.00  0.00     0.012 A 
ATOM      9  C9   11 d          -6.315 204.343 120.326  0.00  0.00     0.001 A 
ATOM     10  C10  11 d          -5.347 204.833 119.443  0.00  0.00     0.001 A 
ATOM     11  C11  11 d          -5.603 205.981 118.681  0.00  0.00     0.013 A 
ATOM     12  C12  11 d          -6.287 208.722 115.792  0.00  0.00     0.166 A 
ATOM     13  N1   11 d          -5.178 209.338 115.346  0.00  0.00    -0.201 N 
ATOM     14  C13  11 d          -5.037 209.683 114.032  0.00  0.00     0.270 A 
ATOM     15  O1   11 d          -4.002 210.268 113.624  0.00  0.00    -0.266 OA
ATOM     16  C14  11 d          -6.075 209.371 113.138  0.00  0.00     0.103 A 
ATOM     17  C15  11 d          -7.224 208.698 113.625  0.00  0.00     0.042 A 
ATOM     18  N2   11 d          -7.317 208.409 114.962  0.00  0.00    -0.233 NA
ATOM     19  N3   11 d          -4.347 209.524 116.333  0.00  0.00    -0.292 N 
ATOM     20  C19  11 d          -4.892 209.029 117.474  0.00  0.00     0.045 A 
ATOM     21  H16  11 d          -3.408 209.992 116.261  0.00  0.00     0.187 HD
ENDROOT
BRANCH  20  22
ATOM     22  C20  11 d          -4.241 209.088 118.830  0.00  0.00     0.098 C 
BRANCH  22  23
ATOM     23  C21  11 d          -4.527 210.403 119.512  0.00  0.00    -0.052 A 
ATOM     24  C22  11 d          -3.480 211.168 120.070  0.00  0.00     0.007 A 
ATOM     25  C23  11 d          -3.756 212.388 120.706  0.00  0.00     0.001 A 
ATOM     26  C24  11 d          -5.075 212.855 120.791  0.00  0.00     0.000 A 
ATOM     27  C25  11 d          -6.123 212.100 120.244  0.00  0.00     0.001 A 
ATOM     28  C26  11 d          -5.851 210.879 119.609  0.00  0.00     0.007 A 
ENDBRANCH  22  23
ENDBRANCH  20  22
BRANCH  17  29
ATOM     29  C16  11 d          -8.421 208.392 112.754  0.00  0.00     0.059 C 
BRANCH  29  30
ATOM     30  C17  11 d          -9.775 208.387 113.481  0.00  0.00     0.002 C 
ATOM     31  C18  11 d         -10.849 207.637 112.694  0.00  0.00     0.005 C 
ENDBRANCH  29  30
ENDBRANCH  17  29
TORSDOF 4
ENDMDL
MODEL 9
REMARK VINA RESULT:      -7.5      5.131      9.216
REMARK  4 active torsions:
REMARK  status: ('A' for Active; 'I' for Inactive)
REMARK    1  A    between atoms: C15_17  and  C16_19 
REMARK    2  A    between atoms: C16_19  and  C17_20 
REMARK    3  A    between atoms: C19_23  and  C20_24 
REMARK    4  A    between atoms: C20_24  and  C21_25 
ROOT
ATOM      1  C1   11 d         -15.335 205.030 120.938  0.00  0.00     0.047 A 
ATOM      2  C2   11 d         -14.972 204.588 119.570  0.00  0.00    -0.009 A 
ATOM      3  C3   11 d         -14.129 205.343 118.709  0.00  0.00    -0.015 A 
ATOM      4  C4   11 d         -13.786 204.812 117.430  0.00  0.00    -0.025 A 
ATOM      5  C5   11 d         -14.300 203.567 117.025  0.00  0.00     0.012 A 
ATOM      6  C6   11 d         -15.154 202.848 117.867  0.00  0.00     0.002 A 
ATOM      7  C7   11 d         -15.489 203.354 119.127  0.00  0.00     0.013 A 
ATOM      8  C8   11 d         -12.941 205.539 116.568  0.00  0.00     0.012 A 
ATOM      9  C9   11 d         -12.446 206.791 116.953  0.00  0.00     0.001 A 
ATOM     10  C10  11 d         -12.796 207.332 118.195  0.00  0.00     0.001 A 
ATOM     11  C11  11 d         -13.633 206.620 119.065  0.00  0.00     0.013 A 
ATOM     12  C12  11 d         -16.612 205.248 121.425  0.00  0.00     0.166 A 
ATOM     13  N1   11 d         -16.515 205.631 122.711  0.00  0.00    -0.201 N 
ATOM     14  C13  11 d         -17.624 205.927 123.450  0.00  0.00     0.270 A 
ATOM     15  O1   11 d         -17.526 206.274 124.654  0.00  0.00    -0.266 OA
ATOM     16  C14  11 d         -18.885 205.836 122.837  0.00  0.00     0.103 A 
ATOM     17  C15  11 d         -18.963 205.456 121.474  0.00  0.00     0.042 A 
ATOM     18  N2   11 d         -17.813 205.141 120.797  0.00  0.00    -0.233 NA
ATOM     19  N3   11 d         -15.262 205.655 123.072  0.00  0.00    -0.292 N 
ATOM     20  C19  11 d         -14.487 205.284 122.021  0.00  0.00     0.045 A 
ATOM     21  H16  11 d         -14.907 205.910 124.029  0.00  0.00     0.187 HD
ENDROOT
BRANCH  20  22
ATOM     22  C20  11 d         -12.987 205.160 122.062  0.00  0.00     0.098 C 
BRANCH  22  23
ATOM     23  C21  11 d         -12.557 204.096 123.042  0.00  0.00    -0.052 A 
ATOM     24  C22  11 d         -13.255 202.873 123.129  0.00  0.00     0.007 A 
ATOM     25  C23  11 d         -12.850 201.892 124.047  0.00  0.00     0.001 A 
ATOM     26  C24  11 d         -11.747 202.121 124.883  0.00  0.00     0.000 A 
ATOM     27  C25  11 d         -11.050 203.335 124.805  0.00  0.00     0.001 A 
ATOM     28  C26  11 d         -11.453 204.319 123.891  0.00  0.00     0.007 A 
ENDBRANCH  22  23
ENDBRANCH  20  22
BRANCH  17  29
ATOM     29  C16  11 d         -20.279 205.257 120.756  0.00  0.00     0.059 C 
BRANCH  29  30
ATOM     30  C17  11 d         -20.580 203.811 120.332  0.00  0.00     0.002 C 
ATOM     31  C18  11 d         -20.601 202.854 121.523  0.00  0.00     0.005 C 
ENDBRANCH  29  30
ENDBRANCH  17  29
TORSDOF 4
ENDMDL
MODEL 10
REMARK VINA RESULT:      -7.5      3.484      8.490
REMARK  4 active torsions:
REMARK  status: ('A' for Active; 'I' for Inactive)
REMARK    1  A    between atoms: C15_17  and  C16_19 
REMARK    2  A    between atoms: C16_19  and  C17_20 
REMARK    3  A    between atoms: C19_23  and  C20_24 
REMARK    4  A    between atoms: C20_24  and  C21_25 
ROOT
ATOM      1  C1   11 d          -7.864 208.406 117.834  0.00  0.00     0.047 A 
ATOM      2  C2   11 d          -6.411 208.703 117.814  0.00  0.00    -0.009 A 
ATOM      3  C3   11 d          -5.815 209.715 118.617  0.00  0.00    -0.015 A 
ATOM      4  C4   11 d          -4.401 209.893 118.576  0.00  0.00    -0.025 A 
ATOM      5  C5   11 d          -3.615 209.089 117.731  0.00  0.00     0.012 A 
ATOM      6  C6   11 d          -4.215 208.118 116.922  0.00  0.00     0.002 A 
ATOM      7  C7   11 d          -5.601 207.928 116.961  0.00  0.00     0.013 A 
ATOM      8  C8   11 d          -3.791 210.881 119.374  0.00  0.00     0.012 A 
ATOM      9  C9   11 d          -4.567 211.703 120.199  0.00  0.00     0.001 A 
ATOM     10  C10  11 d          -5.959 211.554 120.228  0.00  0.00     0.001 A 
ATOM     11  C11  11 d          -6.580 210.574 119.442  0.00  0.00     0.013 A 
ATOM     12  C12  11 d          -8.732 208.455 116.758  0.00  0.00     0.166 A 
ATOM     13  N1   11 d          -9.959 208.108 117.189  0.00  0.00    -0.201 N 
ATOM     14  C13  11 d         -11.028 208.078 116.340  0.00  0.00     0.270 A 
ATOM     15  O1   11 d         -12.169 207.742 116.747  0.00  0.00    -0.266 OA
ATOM     16  C14  11 d         -10.829 208.431 114.994  0.00  0.00     0.103 A 
ATOM     17  C15  11 d          -9.533 208.818 114.567  0.00  0.00     0.042 A 
ATOM     18  N2   11 d          -8.497 208.796 115.463  0.00  0.00    -0.233 NA
ATOM     19  N3   11 d          -9.918 207.828 118.462  0.00  0.00    -0.292 N 
ATOM     20  C19  11 d          -8.647 207.986 118.913  0.00  0.00     0.045 A 
ATOM     21  H16  11 d         -10.737 207.520 119.046  0.00  0.00     0.187 HD
ENDROOT
BRANCH  20  22
ATOM     22  C20  11 d          -8.201 207.724 120.327  0.00  0.00     0.098 C 
BRANCH  22  23
ATOM     23  C21  11 d          -7.023 206.782 120.359  0.00  0.00    -0.052 A 
ATOM     24  C22  11 d          -5.826 207.146 121.010  0.00  0.00     0.007 A 
ATOM     25  C23  11 d          -4.734 206.265 121.031  0.00  0.00     0.001 A 
ATOM     26  C24  11 d          -4.827 205.014 120.402  0.00  0.00     0.000 A 
ATOM     27  C25  11 d          -6.011 204.645 119.748  0.00  0.00     0.001 A 
ATOM     28  C26  11 d          -7.104 205.524 119.725  0.00  0.00     0.007 A 
ENDBRANCH  22  23
ENDBRANCH  20  22
BRANCH  17  29
ATOM     29  C16  11 d          -9.211 209.139 113.126  0.00  0.00     0.059 C 
BRANCH  29  30
ATOM     30  C17  11 d          -7.725 209.399 112.830  0.00  0.00     0.002 C 
ATOM     31  C18  11 d          -7.152 208.395 111.831  0.00  0.00     0.005 C 
ENDBRANCH  29  30
ENDBRANCH  17  29
TORSDOF 4
ENDMDL
