MODEL 1
REMARK VINA RESULT:      -9.3      0.000      0.000
REMARK  2 active torsions:
REMARK  status: ('A' for Active; 'I' for Inactive)
REMARK       I    between atoms: C1_1  and  N1_2 
REMARK       I    between atoms: C1_1  and  N2_17 
REMARK    1  A    between atoms: N2_17  and  C14_18 
REMARK    2  A    between atoms: C14_18  and  C15_19 
ROOT
ATOM      1  C1   11 d         -11.332 207.550 112.510  0.00  0.00     0.328 C 
ATOM      2  N1   11 d         -12.407 207.021 113.289  0.00  0.00    -0.262 N 
ATOM      3  C2   11 d         -13.635 206.516 112.681  0.00  0.00     0.061 A 
ATOM      4  C3   11 d         -14.842 207.105 113.110  0.00  0.00     0.033 A 
ATOM      5  S1   11 d         -14.812 208.369 114.431  0.00  0.00    -0.086 SA
ATOM      6  C4   11 d         -13.493 207.569 115.410  0.00  0.00     0.033 A 
ATOM      7  C5   11 d         -12.421 206.939 114.746  0.00  0.00     0.061 A 
ATOM      8  C6   11 d         -11.466 206.210 115.476  0.00  0.00     0.031 A 
ATOM      9  C7   11 d         -11.555 206.150 116.875  0.00  0.00     0.002 A 
ATOM     10  C8   11 d         -12.606 206.801 117.541  0.00  0.00     0.002 A 
ATOM     11  C9   11 d         -13.578 207.506 116.810  0.00  0.00     0.021 A 
ATOM     12  C10  11 d         -16.060 206.675 112.561  0.00  0.00     0.021 A 
ATOM     13  C11  11 d         -16.073 205.650 111.599  0.00  0.00     0.002 A 
ATOM     14  C12  11 d         -14.871 205.045 111.196  0.00  0.00     0.002 A 
ATOM     15  C13  11 d         -13.650 205.470 111.743  0.00  0.00     0.031 A 
ATOM     16  O1   11 d         -11.434 207.550 111.232  0.00  0.00    -0.246 OA
ATOM     17  N2   11 d         -10.150 208.072 113.109  0.00  0.00    -0.337 N 
ATOM     18  H9   11 d         -10.058 208.092 114.175  0.00  0.00     0.164 HD
ENDROOT
BRANCH  17  19
ATOM     19  C14  11 d          -9.040 208.586 112.246  0.00  0.00     0.183 C 
BRANCH  19  20
ATOM     20  C15  11 d          -7.800 209.024 112.985  0.00  0.00     0.051 A 
ATOM     21  N3   11 d          -7.954 209.815 114.091  0.00  0.00    -0.264 NA
ATOM     22  C16  11 d          -6.900 210.216 114.856  0.00  0.00     0.117 A 
ATOM     23  C17  11 d          -5.604 209.791 114.539  0.00  0.00     0.019 A 
ATOM     24  C18  11 d          -5.414 208.950 113.435  0.00  0.00     0.003 A 
ATOM     25  C19  11 d          -6.512 208.556 112.656  0.00  0.00     0.029 A 
ENDBRANCH  19  20
ENDBRANCH  17  19
TORSDOF 2
ENDMDL
MODEL 2
REMARK VINA RESULT:      -8.6      2.983      6.348
REMARK  2 active torsions:
REMARK  status: ('A' for Active; 'I' for Inactive)
REMARK       I    between atoms: C1_1  and  N1_2 
REMARK       I    between atoms: C1_1  and  N2_17 
REMARK    1  A    between atoms: N2_17  and  C14_18 
REMARK    2  A    between atoms: C14_18  and  C15_19 
ROOT
ATOM      1  C1   11 d         -13.778 205.743 115.042  0.00  0.00     0.328 C 
ATOM      2  N1   11 d         -13.334 206.654 114.035  0.00  0.00    -0.262 N 
ATOM      3  C2   11 d         -14.064 206.852 112.786  0.00  0.00     0.061 A 
ATOM      4  C3   11 d         -13.346 206.630 111.592  0.00  0.00     0.033 A 
ATOM      5  S1   11 d         -11.568 206.209 111.669  0.00  0.00    -0.086 SA
ATOM      6  C4   11 d         -11.186 207.318 113.071  0.00  0.00     0.033 A 
ATOM      7  C5   11 d         -12.121 207.462 114.116  0.00  0.00     0.061 A 
ATOM      8  C6   11 d         -11.902 208.404 115.137  0.00  0.00     0.031 A 
ATOM      9  C7   11 d         -10.725 209.169 115.139  0.00  0.00     0.002 A 
ATOM     10  C8   11 d          -9.779 209.006 114.114  0.00  0.00     0.002 A 
ATOM     11  C9   11 d         -10.011 208.085 113.077  0.00  0.00     0.021 A 
ATOM     12  C10  11 d         -13.989 206.793 110.354  0.00  0.00     0.021 A 
ATOM     13  C11  11 d         -15.336 207.189 110.310  0.00  0.00     0.002 A 
ATOM     14  C12  11 d         -16.039 207.437 111.500  0.00  0.00     0.002 A 
ATOM     15  C13  11 d         -15.402 207.278 112.741  0.00  0.00     0.031 A 
ATOM     16  O1   11 d         -14.873 205.102 114.859  0.00  0.00    -0.246 OA
ATOM     17  N2   11 d         -13.045 205.529 116.244  0.00  0.00    -0.337 N 
ATOM     18  H9   11 d         -12.121 206.045 116.404  0.00  0.00     0.164 HD
ENDROOT
BRANCH  17  19
ATOM     19  C14  11 d         -13.571 204.586 117.281  0.00  0.00     0.183 C 
BRANCH  19  20
ATOM     20  C15  11 d         -14.190 205.240 118.491  0.00  0.00     0.051 A 
ATOM     21  N3   11 d         -14.843 204.444 119.392  0.00  0.00    -0.264 NA
ATOM     22  C16  11 d         -15.387 204.933 120.542  0.00  0.00     0.117 A 
ATOM     23  C17  11 d         -15.259 206.292 120.852  0.00  0.00     0.019 A 
ATOM     24  C18  11 d         -14.565 207.130 119.971  0.00  0.00     0.003 A 
ATOM     25  C19  11 d         -14.020 206.608 118.788  0.00  0.00     0.029 A 
ENDBRANCH  19  20
ENDBRANCH  17  19
TORSDOF 2
ENDMDL
MODEL 3
REMARK VINA RESULT:      -8.6      1.730      2.037
REMARK  2 active torsions:
REMARK  status: ('A' for Active; 'I' for Inactive)
REMARK       I    between atoms: C1_1  and  N1_2 
REMARK       I    between atoms: C1_1  and  N2_17 
REMARK    1  A    between atoms: N2_17  and  C14_18 
REMARK    2  A    between atoms: C14_18  and  C15_19 
ROOT
ATOM      1  C1   11 d         -10.229 208.372 114.135  0.00  0.00     0.328 C 
ATOM      2  N1   11 d         -11.460 207.696 114.395  0.00  0.00    -0.262 N 
ATOM      3  C2   11 d         -12.383 207.318 113.329  0.00  0.00     0.061 A 
ATOM      4  C3   11 d         -13.702 207.808 113.430  0.00  0.00     0.033 A 
ATOM      5  S1   11 d         -14.195 208.784 114.897  0.00  0.00    -0.086 SA
ATOM      6  C4   11 d         -13.217 207.808 116.093  0.00  0.00     0.033 A 
ATOM      7  C5   11 d         -11.946 207.326 115.722  0.00  0.00     0.061 A 
ATOM      8  C6   11 d         -11.234 206.469 116.579  0.00  0.00     0.031 A 
ATOM      9  C7   11 d         -11.773 206.132 117.831  0.00  0.00     0.002 A 
ATOM     10  C8   11 d         -13.026 206.635 118.215  0.00  0.00     0.002 A 
ATOM     11  C9   11 d         -13.752 207.468 117.346  0.00  0.00     0.021 A 
ATOM     12  C10  11 d         -14.640 207.492 112.435  0.00  0.00     0.021 A 
ATOM     13  C11  11 d         -14.266 206.679 111.351  0.00  0.00     0.002 A 
ATOM     14  C12  11 d         -12.960 206.169 111.268  0.00  0.00     0.002 A 
ATOM     15  C13  11 d         -12.018 206.480 112.262  0.00  0.00     0.031 A 
ATOM     16  O1   11 d          -9.906 208.626 112.920  0.00  0.00    -0.246 OA
ATOM     17  N2   11 d          -9.348 208.768 115.181  0.00  0.00    -0.337 N 
ATOM     18  H9   11 d          -9.612 208.576 116.201  0.00  0.00     0.164 HD
ENDROOT
BRANCH  17  19
ATOM     19  C14  11 d          -8.055 209.447 114.851  0.00  0.00     0.183 C 
BRANCH  19  20
ATOM     20  C15  11 d          -6.812 208.644 115.148  0.00  0.00     0.051 A 
ATOM     21  N3   11 d          -6.654 208.143 116.411  0.00  0.00    -0.264 NA
ATOM     22  C16  11 d          -5.595 207.360 116.761  0.00  0.00     0.117 A 
ATOM     23  C17  11 d          -4.634 207.016 115.803  0.00  0.00     0.019 A 
ATOM     24  C18  11 d          -4.783 207.482 114.490  0.00  0.00     0.003 A 
ATOM     25  C19  11 d          -5.877 208.293 114.153  0.00  0.00     0.029 A 
ENDBRANCH  19  20
ENDBRANCH  17  19
TORSDOF 2
ENDMDL
MODEL 4
REMARK VINA RESULT:      -8.0      2.973      5.183
REMARK  2 active torsions:
REMARK  status: ('A' for Active; 'I' for Inactive)
REMARK       I    between atoms: C1_1  and  N1_2 
REMARK       I    between atoms: C1_1  and  N2_17 
REMARK    1  A    between atoms: N2_17  and  C14_18 
REMARK    2  A    between atoms: C14_18  and  C15_19 
ROOT
ATOM      1  C1   11 d         -11.988 207.665 117.366  0.00  0.00     0.328 C 
ATOM      2  N1   11 d         -13.278 207.050 117.346  0.00  0.00    -0.262 N 
ATOM      3  C2   11 d         -13.938 206.583 118.562  0.00  0.00     0.061 A 
ATOM      4  C3   11 d         -14.314 205.224 118.596  0.00  0.00     0.033 A 
ATOM      5  S1   11 d         -14.046 204.174 117.123  0.00  0.00    -0.086 SA
ATOM      6  C4   11 d         -14.464 205.470 115.904  0.00  0.00     0.033 A 
ATOM      7  C5   11 d         -14.066 206.802 116.142  0.00  0.00     0.061 A 
ATOM      8  C6   11 d         -14.487 207.832 115.284  0.00  0.00     0.031 A 
ATOM      9  C7   11 d         -15.267 207.525 114.158  0.00  0.00     0.002 A 
ATOM     10  C8   11 d         -15.640 206.196 113.902  0.00  0.00     0.002 A 
ATOM     11  C9   11 d         -15.245 205.169 114.777  0.00  0.00     0.021 A 
ATOM     12  C10  11 d         -14.945 204.705 119.738  0.00  0.00     0.021 A 
ATOM     13  C11  11 d         -15.211 205.543 120.834  0.00  0.00     0.002 A 
ATOM     14  C12  11 d         -14.862 206.902 120.786  0.00  0.00     0.002 A 
ATOM     15  C13  11 d         -14.232 207.428 119.646  0.00  0.00     0.031 A 
ATOM     16  O1   11 d         -11.404 207.844 118.494  0.00  0.00    -0.246 OA
ATOM     17  N2   11 d         -11.334 208.089 116.175  0.00  0.00    -0.337 N 
ATOM     18  H9   11 d         -11.803 207.932 115.225  0.00  0.00     0.164 HD
ENDROOT
BRANCH  17  19
ATOM     19  C14  11 d          -9.996 208.755 116.254  0.00  0.00     0.183 C 
BRANCH  19  20
ATOM     20  C15  11 d          -9.278 208.916 114.937  0.00  0.00     0.051 A 
ATOM     21  N3   11 d          -8.002 209.407 114.953  0.00  0.00    -0.264 NA
ATOM     22  C16  11 d          -7.252 209.537 113.822  0.00  0.00     0.117 A 
ATOM     23  C17  11 d          -7.774 209.131 112.588  0.00  0.00     0.019 A 
ATOM     24  C18  11 d          -9.065 208.589 112.538  0.00  0.00     0.003 A 
ATOM     25  C19  11 d          -9.822 208.472 113.714  0.00  0.00     0.029 A 
ENDBRANCH  19  20
ENDBRANCH  17  19
TORSDOF 2
ENDMDL
MODEL 5
REMARK VINA RESULT:      -7.9      3.432      5.168
REMARK  2 active torsions:
REMARK  status: ('A' for Active; 'I' for Inactive)
REMARK       I    between atoms: C1_1  and  N1_2 
REMARK       I    between atoms: C1_1  and  N2_17 
REMARK    1  A    between atoms: N2_17  and  C14_18 
REMARK    2  A    between atoms: C14_18  and  C15_19 
ROOT
ATOM      1  C1   11 d         -10.675 207.538 116.731  0.00  0.00     0.328 C 
ATOM      2  N1   11 d         -11.109 207.918 115.424  0.00  0.00    -0.262 N 
ATOM      3  C2   11 d         -12.510 207.855 115.019  0.00  0.00     0.061 A 
ATOM      4  C3   11 d         -12.806 207.075 113.882  0.00  0.00     0.033 A 
ATOM      5  S1   11 d         -11.447 206.283 112.949  0.00  0.00    -0.086 SA
ATOM      6  C4   11 d         -10.272 207.670 113.139  0.00  0.00     0.033 A 
ATOM      7  C5   11 d         -10.230 208.383 114.355  0.00  0.00     0.061 A 
ATOM      8  C6   11 d          -9.427 209.530 114.477  0.00  0.00     0.031 A 
ATOM      9  C7   11 d          -8.627 209.938 113.398  0.00  0.00     0.002 A 
ATOM     10  C8   11 d          -8.645 209.212 112.196  0.00  0.00     0.002 A 
ATOM     11  C9   11 d          -9.470 208.083 112.063  0.00  0.00     0.021 A 
ATOM     12  C10  11 d         -14.134 206.963 113.442  0.00  0.00     0.021 A 
ATOM     13  C11  11 d         -15.160 207.637 114.127  0.00  0.00     0.002 A 
ATOM     14  C12  11 d         -14.858 208.436 115.242  0.00  0.00     0.002 A 
ATOM     15  C13  11 d         -13.531 208.554 115.685  0.00  0.00     0.031 A 
ATOM     16  O1   11 d         -11.549 207.162 117.590  0.00  0.00    -0.246 OA
ATOM     17  N2   11 d          -9.302 207.570 117.111  0.00  0.00    -0.337 N 
ATOM     18  H9   11 d          -8.559 207.867 116.400  0.00  0.00     0.164 HD
ENDROOT
BRANCH  17  19
ATOM     19  C14  11 d          -8.904 207.191 118.503  0.00  0.00     0.183 C 
BRANCH  19  20
ATOM     20  C15  11 d          -8.169 208.259 119.275  0.00  0.00     0.051 A 
ATOM     21  N3   11 d          -6.971 208.702 118.784  0.00  0.00    -0.264 NA
ATOM     22  C16  11 d          -6.260 209.700 119.379  0.00  0.00     0.117 A 
ATOM     23  C17  11 d          -6.766 210.334 120.520  0.00  0.00     0.019 A 
ATOM     24  C18  11 d          -8.007 209.931 121.030  0.00  0.00     0.003 A 
ATOM     25  C19  11 d          -8.719 208.896 120.407  0.00  0.00     0.029 A 
ENDBRANCH  19  20
ENDBRANCH  17  19
TORSDOF 2
ENDMDL
MODEL 6
REMARK VINA RESULT:      -7.6      3.188      4.114
REMARK  2 active torsions:
REMARK  status: ('A' for Active; 'I' for Inactive)
REMARK       I    between atoms: C1_1  and  N1_2 
REMARK       I    between atoms: C1_1  and  N2_17 
REMARK    1  A    between atoms: N2_17  and  C14_18 
REMARK    2  A    between atoms: C14_18  and  C15_19 
ROOT
ATOM      1  C1   11 d         -11.501 207.813 115.971  0.00  0.00     0.328 C 
ATOM      2  N1   11 d         -12.298 206.863 115.262  0.00  0.00    -0.262 N 
ATOM      3  C2   11 d         -12.386 206.852 113.804  0.00  0.00     0.061 A 
ATOM      4  C3   11 d         -13.677 206.962 113.248  0.00  0.00     0.033 A 
ATOM      5  S1   11 d         -15.136 207.017 114.350  0.00  0.00    -0.086 SA
ATOM      6  C4   11 d         -14.487 205.813 115.561  0.00  0.00     0.033 A 
ATOM      7  C5   11 d         -13.115 205.827 115.887  0.00  0.00     0.061 A 
ATOM      8  C6   11 d         -12.574 204.830 116.717  0.00  0.00     0.031 A 
ATOM      9  C7   11 d         -13.413 203.846 117.262  0.00  0.00     0.002 A 
ATOM     10  C8   11 d         -14.785 203.848 116.964  0.00  0.00     0.002 A 
ATOM     11  C9   11 d         -15.322 204.827 116.109  0.00  0.00     0.021 A 
ATOM     12  C10  11 d         -13.835 206.968 111.853  0.00  0.00     0.021 A 
ATOM     13  C11  11 d         -12.711 206.851 111.019  0.00  0.00     0.002 A 
ATOM     14  C12  11 d         -11.429 206.712 111.577  0.00  0.00     0.002 A 
ATOM     15  C13  11 d         -11.264 206.703 112.971  0.00  0.00     0.031 A 
ATOM     16  O1   11 d         -10.812 208.665 115.304  0.00  0.00    -0.246 OA
ATOM     17  N2   11 d         -11.443 207.841 117.393  0.00  0.00    -0.337 N 
ATOM     18  H9   11 d         -12.025 207.146 117.963  0.00  0.00     0.164 HD
ENDROOT
BRANCH  17  19
ATOM     19  C14  11 d         -10.569 208.838 118.087  0.00  0.00     0.183 C 
BRANCH  19  20
ATOM     20  C15  11 d          -9.289 208.282 118.661  0.00  0.00     0.051 A 
ATOM     21  N3   11 d          -8.485 207.536 117.843  0.00  0.00    -0.264 NA
ATOM     22  C16  11 d          -7.285 207.037 118.253  0.00  0.00     0.117 A 
ATOM     23  C17  11 d          -6.819 207.310 119.545  0.00  0.00     0.019 A 
ATOM     24  C18  11 d          -7.600 208.101 120.398  0.00  0.00     0.003 A 
ATOM     25  C19  11 d          -8.836 208.598 119.958  0.00  0.00     0.029 A 
ENDBRANCH  19  20
ENDBRANCH  17  19
TORSDOF 2
ENDMDL
MODEL 7
REMARK VINA RESULT:      -7.4      3.480      8.431
REMARK  2 active torsions:
REMARK  status: ('A' for Active; 'I' for Inactive)
REMARK       I    between atoms: C1_1  and  N1_2 
REMARK       I    between atoms: C1_1  and  N2_17 
REMARK    1  A    between atoms: N2_17  and  C14_18 
REMARK    2  A    between atoms: C14_18  and  C15_19 
ROOT
ATOM      1  C1   11 d          -6.871 209.212 114.324  0.00  0.00     0.328 C 
ATOM      2  N1   11 d          -5.582 209.097 114.929  0.00  0.00    -0.262 N 
ATOM      3  C2   11 d          -4.387 208.760 114.160  0.00  0.00     0.061 A 
ATOM      4  C3   11 d          -3.662 207.626 114.581  0.00  0.00     0.033 A 
ATOM      5  S1   11 d          -4.191 206.719 116.079  0.00  0.00    -0.086 SA
ATOM      6  C4   11 d          -4.680 208.207 117.021  0.00  0.00     0.033 A 
ATOM      7  C5   11 d          -5.308 209.277 116.351  0.00  0.00     0.061 A 
ATOM      8  C6   11 d          -5.576 210.478 117.031  0.00  0.00     0.031 A 
ATOM      9  C7   11 d          -5.261 210.593 118.394  0.00  0.00     0.002 A 
ATOM     10  C8   11 d          -4.663 209.518 119.070  0.00  0.00     0.002 A 
ATOM     11  C9   11 d          -4.367 208.327 118.384  0.00  0.00     0.021 A 
ATOM     12  C10  11 d          -2.509 207.239 113.881  0.00  0.00     0.021 A 
ATOM     13  C11  11 d          -2.073 207.990 112.776  0.00  0.00     0.002 A 
ATOM     14  C12  11 d          -2.781 209.135 112.377  0.00  0.00     0.002 A 
ATOM     15  C13  11 d          -3.935 209.529 113.074  0.00  0.00     0.031 A 
ATOM     16  O1   11 d          -6.979 209.047 113.057  0.00  0.00    -0.246 OA
ATOM     17  N2   11 d          -8.039 209.508 115.083  0.00  0.00    -0.337 N 
ATOM     18  H9   11 d          -7.967 209.632 116.145  0.00  0.00     0.164 HD
ENDROOT
BRANCH  17  19
ATOM     19  C14  11 d          -9.362 209.647 114.396  0.00  0.00     0.183 C 
BRANCH  19  20
ATOM     20  C15  11 d         -10.181 208.382 114.316  0.00  0.00     0.051 A 
ATOM     21  N3   11 d         -10.819 207.954 115.448  0.00  0.00    -0.264 NA
ATOM     22  C16  11 d         -11.626 206.855 115.463  0.00  0.00     0.117 A 
ATOM     23  C17  11 d         -11.850 206.138 114.282  0.00  0.00     0.019 A 
ATOM     24  C18  11 d         -11.242 206.569 113.096  0.00  0.00     0.003 A 
ATOM     25  C19  11 d         -10.409 207.698 113.105  0.00  0.00     0.029 A 
ENDBRANCH  19  20
ENDBRANCH  17  19
TORSDOF 2
ENDMDL
MODEL 8
REMARK VINA RESULT:      -7.4      4.253      7.788
REMARK  2 active torsions:
REMARK  status: ('A' for Active; 'I' for Inactive)
REMARK       I    between atoms: C1_1  and  N1_2 
REMARK       I    between atoms: C1_1  and  N2_17 
REMARK    1  A    between atoms: N2_17  and  C14_18 
REMARK    2  A    between atoms: C14_18  and  C15_19 
ROOT
ATOM      1  C1   11 d         -14.689 204.754 116.574  0.00  0.00     0.328 C 
ATOM      2  N1   11 d         -13.982 205.831 115.957  0.00  0.00    -0.262 N 
ATOM      3  C2   11 d         -14.228 206.237 114.576  0.00  0.00     0.061 A 
ATOM      4  C3   11 d         -13.117 206.235 113.708  0.00  0.00     0.033 A 
ATOM      5  S1   11 d         -11.458 205.826 114.362  0.00  0.00    -0.086 SA
ATOM      6  C4   11 d         -11.686 206.676 115.964  0.00  0.00     0.033 A 
ATOM      7  C5   11 d         -12.941 206.626 116.604  0.00  0.00     0.061 A 
ATOM      8  C6   11 d         -13.173 207.377 117.769  0.00  0.00     0.031 A 
ATOM      9  C7   11 d         -12.135 208.142 118.323  0.00  0.00     0.002 A 
ATOM     10  C8   11 d         -10.875 208.171 117.703  0.00  0.00     0.002 A 
ATOM     11  C9   11 d         -10.651 207.443 116.522  0.00  0.00     0.021 A 
ATOM     12  C10  11 d         -13.283 206.605 112.365  0.00  0.00     0.021 A 
ATOM     13  C11  11 d         -14.550 206.988 111.894  0.00  0.00     0.002 A 
ATOM     14  C12  11 d         -15.650 207.017 112.768  0.00  0.00     0.002 A 
ATOM     15  C13  11 d         -15.489 206.650 114.114  0.00  0.00     0.031 A 
ATOM     16  O1   11 d         -15.596 204.143 115.904  0.00  0.00    -0.246 OA
ATOM     17  N2   11 d         -14.422 204.341 117.910  0.00  0.00    -0.337 N 
ATOM     18  H9   11 d         -13.657 204.831 118.477  0.00  0.00     0.164 HD
ENDROOT
BRANCH  17  19
ATOM     19  C14  11 d         -15.213 203.225 118.519  0.00  0.00     0.183 C 
BRANCH  19  20
ATOM     20  C15  11 d         -16.061 203.611 119.706  0.00  0.00     0.051 A 
ATOM     21  N3   11 d         -15.664 204.680 120.462  0.00  0.00    -0.264 NA
ATOM     22  C16  11 d         -16.391 205.139 121.520  0.00  0.00     0.117 A 
ATOM     23  C17  11 d         -17.609 204.531 121.847  0.00  0.00     0.019 A 
ATOM     24  C18  11 d         -18.065 203.457 121.072  0.00  0.00     0.003 A 
ATOM     25  C19  11 d         -17.297 202.995 119.992  0.00  0.00     0.029 A 
ENDBRANCH  19  20
ENDBRANCH  17  19
TORSDOF 2
ENDMDL
MODEL 9
REMARK VINA RESULT:      -7.3      3.809      5.747
REMARK  2 active torsions:
REMARK  status: ('A' for Active; 'I' for Inactive)
REMARK       I    between atoms: C1_1  and  N1_2 
REMARK       I    between atoms: C1_1  and  N2_17 
REMARK    1  A    between atoms: N2_17  and  C14_18 
REMARK    2  A    between atoms: C14_18  and  C15_19 
ROOT
ATOM      1  C1   11 d         -12.132 206.323 118.652  0.00  0.00     0.328 C 
ATOM      2  N1   11 d         -13.466 205.981 118.271  0.00  0.00    -0.262 N 
ATOM      3  C2   11 d         -14.386 205.302 119.179  0.00  0.00     0.061 A 
ATOM      4  C3   11 d         -14.934 204.083 118.730  0.00  0.00     0.033 A 
ATOM      5  S1   11 d         -14.546 203.482 117.046  0.00  0.00    -0.086 SA
ATOM      6  C4   11 d         -14.571 205.132 116.261  0.00  0.00     0.033 A 
ATOM      7  C5   11 d         -14.053 206.241 116.960  0.00  0.00     0.061 A 
ATOM      8  C6   11 d         -14.178 207.536 116.427  0.00  0.00     0.031 A 
ATOM      9  C7   11 d         -14.779 207.717 115.172  0.00  0.00     0.002 A 
ATOM     10  C8   11 d         -15.269 206.611 114.461  0.00  0.00     0.002 A 
ATOM     11  C9   11 d         -15.171 205.319 115.006  0.00  0.00     0.021 A 
ATOM     12  C10  11 d         -15.818 203.371 119.556  0.00  0.00     0.021 A 
ATOM     13  C11  11 d         -16.165 203.883 120.818  0.00  0.00     0.002 A 
ATOM     14  C12  11 d         -15.640 205.112 121.250  0.00  0.00     0.002 A 
ATOM     15  C13  11 d         -14.756 205.829 120.428  0.00  0.00     0.031 A 
ATOM     16  O1   11 d         -11.739 206.056 119.843  0.00  0.00    -0.246 OA
ATOM     17  N2   11 d         -11.227 206.956 117.752  0.00  0.00    -0.337 N 
ATOM     18  H9   11 d         -11.536 207.171 116.750  0.00  0.00     0.164 HD
ENDROOT
BRANCH  17  19
ATOM     19  C14  11 d          -9.850 207.320 118.211  0.00  0.00     0.183 C 
BRANCH  19  20
ATOM     20  C15  11 d          -8.999 208.034 117.189  0.00  0.00     0.051 A 
ATOM     21  N3   11 d          -7.648 208.088 117.399  0.00  0.00    -0.264 NA
ATOM     22  C16  11 d          -6.791 208.661 116.507  0.00  0.00     0.117 A 
ATOM     23  C17  11 d          -7.283 209.195 115.310  0.00  0.00     0.019 A 
ATOM     24  C18  11 d          -8.657 209.124 115.045  0.00  0.00     0.003 A 
ATOM     25  C19  11 d          -9.522 208.537 115.980  0.00  0.00     0.029 A 
ENDBRANCH  19  20
ENDBRANCH  17  19
TORSDOF 2
ENDMDL
MODEL 10
REMARK VINA RESULT:      -7.1      3.227      5.287
REMARK  2 active torsions:
REMARK  status: ('A' for Active; 'I' for Inactive)
REMARK       I    between atoms: C1_1  and  N1_2 
REMARK       I    between atoms: C1_1  and  N2_17 
REMARK    1  A    between atoms: N2_17  and  C14_18 
REMARK    2  A    between atoms: C14_18  and  C15_19 
ROOT
ATOM      1  C1   11 d         -12.426 206.469 115.992  0.00  0.00     0.328 C 
ATOM      2  N1   11 d         -12.310 207.155 114.744  0.00  0.00    -0.262 N 
ATOM      3  C2   11 d         -13.378 207.147 113.749  0.00  0.00     0.061 A 
ATOM      4  C3   11 d         -13.042 206.674 112.463  0.00  0.00     0.033 A 
ATOM      5  S1   11 d         -11.315 206.197 112.098  0.00  0.00    -0.086 SA
ATOM      6  C4   11 d         -10.551 207.530 113.086  0.00  0.00     0.033 A 
ATOM      7  C5   11 d         -11.138 207.910 114.311  0.00  0.00     0.061 A 
ATOM      8  C6   11 d         -10.641 209.015 115.023  0.00  0.00     0.031 A 
ATOM      9  C7   11 d          -9.526 209.714 114.534  0.00  0.00     0.002 A 
ATOM     10  C8   11 d          -8.922 209.320 113.330  0.00  0.00     0.002 A 
ATOM     11  C9   11 d          -9.436 208.233 112.602  0.00  0.00     0.021 A 
ATOM     12  C10  11 d         -14.023 206.631 111.460  0.00  0.00     0.021 A 
ATOM     13  C11  11 d         -15.329 207.070 111.735  0.00  0.00     0.002 A 
ATOM     14  C12  11 d         -15.653 207.568 113.008  0.00  0.00     0.002 A 
ATOM     15  C13  11 d         -14.676 207.616 114.016  0.00  0.00     0.031 A 
ATOM     16  O1   11 d         -13.518 205.855 116.263  0.00  0.00    -0.246 OA
ATOM     17  N2   11 d         -11.368 206.452 116.946  0.00  0.00    -0.337 N 
ATOM     18  H9   11 d         -10.445 206.948 116.727  0.00  0.00     0.164 HD
ENDROOT
BRANCH  17  19
ATOM     19  C14  11 d         -11.552 205.744 118.252  0.00  0.00     0.183 C 
BRANCH  19  20
ATOM     20  C15  11 d         -10.554 206.104 119.325  0.00  0.00     0.051 A 
ATOM     21  N3   11 d         -10.443 205.274 120.407  0.00  0.00    -0.264 NA
ATOM     22  C16  11 d          -9.533 205.483 121.400  0.00  0.00     0.117 A 
ATOM     23  C17  11 d          -8.647 206.564 121.319  0.00  0.00     0.019 A 
ATOM     24  C18  11 d          -8.708 207.414 120.206  0.00  0.00     0.003 A 
ATOM     25  C19  11 d          -9.657 207.184 119.200  0.00  0.00     0.029 A 
ENDBRANCH  19  20
ENDBRANCH  17  19
TORSDOF 2
ENDMDL
