MODEL 1
REMARK VINA RESULT:      -8.0      0.000      0.000
REMARK  3 active torsions:
REMARK  status: ('A' for Active; 'I' for Inactive)
REMARK    1  A    between atoms: C4_5  and  N1_8 
REMARK    2  A    between atoms: N1_8  and  S1_9 
REMARK    3  A    between atoms: S1_9  and  C7_10 
ROOT
ATOM      1  N1   11 d         -12.726 205.833 113.748  0.00  0.00    -0.281 N 
ATOM      2  H4   11 d         -12.216 204.995 113.582  0.00  0.00     0.179 HD
ENDROOT
BRANCH   1   3
ATOM      3  C4   11 d         -13.943 206.021 113.100  0.00  0.00     0.044 A 
ATOM      4  C3   11 d         -13.930 206.521 111.780  0.00  0.00     0.057 A 
ATOM      5  C2   11 d         -15.126 206.761 111.086  0.00  0.00     0.074 A 
ATOM      6  C1   11 d         -16.359 206.490 111.701  0.00  0.00     0.138 A 
ATOM      7 Cl1   11 d         -15.064 207.416 109.430  0.00  0.00    -0.081 Cl
ATOM      8  C6   11 d         -16.389 205.987 113.008  0.00  0.00     0.046 A 
ATOM      9  F1   11 d         -17.533 206.715 111.041  0.00  0.00    -0.204 F 
ATOM     10  C5   11 d         -15.195 205.757 113.705  0.00  0.00     0.033 A 
ENDBRANCH   1   3
BRANCH   1  11
ATOM     11  S1   11 d         -12.020 206.941 114.808  0.00  0.00     0.264 S 
ATOM     12  O1   11 d         -11.422 206.201 116.007  0.00  0.00    -0.200 OA
ATOM     13  O2   11 d         -13.112 207.865 115.352  0.00  0.00    -0.200 OA
BRANCH  11  14
ATOM     14  C7   11 d         -10.748 207.946 114.014  0.00  0.00     0.101 A 
ATOM     15  C8   11 d          -9.937 208.832 114.758  0.00  0.00     0.057 A 
ATOM     16 Cl2   11 d         -10.119 209.044 116.522  0.00  0.00    -0.083 Cl
ATOM     17  C9   11 d          -8.951 209.593 114.109  0.00  0.00     0.025 A 
ATOM     18  C10  11 d          -8.758 209.470 112.726  0.00  0.00     0.002 A 
ATOM     19  C11  11 d          -9.557 208.590 111.984  0.00  0.00     0.002 A 
ATOM     20  C12  11 d         -10.551 207.835 112.623  0.00  0.00     0.027 A 
ENDBRANCH  11  14
ENDBRANCH   1  11
TORSDOF 3
ENDMDL
MODEL 2
REMARK VINA RESULT:      -8.0      1.676      2.034
REMARK  3 active torsions:
REMARK  status: ('A' for Active; 'I' for Inactive)
REMARK    1  A    between atoms: C4_5  and  N1_8 
REMARK    2  A    between atoms: N1_8  and  S1_9 
REMARK    3  A    between atoms: S1_9  and  C7_10 
ROOT
ATOM      1  N1   11 d         -13.124 208.265 114.397  0.00  0.00    -0.281 N 
ATOM      2  H4   11 d         -13.242 209.248 114.490  0.00  0.00     0.179 HD
ENDROOT
BRANCH   1   3
ATOM      3  C4   11 d         -14.147 207.515 113.826  0.00  0.00     0.044 A 
ATOM      4  C3   11 d         -14.329 207.581 112.427  0.00  0.00     0.057 A 
ATOM      5  C2   11 d         -15.363 206.872 111.797  0.00  0.00     0.074 A 
ATOM      6  C1   11 d         -16.228 206.070 112.561  0.00  0.00     0.138 A 
ATOM      7 Cl1   11 d         -15.571 207.004 110.033  0.00  0.00    -0.081 Cl
ATOM      8  C6   11 d         -16.057 205.987 113.948  0.00  0.00     0.046 A 
ATOM      9  F1   11 d         -17.238 205.371 111.966  0.00  0.00    -0.204 F 
ATOM     10  C5   11 d         -15.031 206.704 114.579  0.00  0.00     0.033 A 
ENDBRANCH   1   3
BRANCH   1  11
ATOM     11  S1   11 d         -11.670 207.627 114.971  0.00  0.00     0.264 S 
ATOM     12  O1   11 d         -11.680 206.103 114.823  0.00  0.00    -0.200 OA
ATOM     13  O2   11 d         -11.556 207.931 116.467  0.00  0.00    -0.200 OA
BRANCH  11  14
ATOM     14  C7   11 d         -10.231 208.313 114.125  0.00  0.00     0.101 A 
ATOM     15  C8   11 d         -10.022 208.111 112.741  0.00  0.00     0.057 A 
ATOM     16 Cl2   11 d         -11.143 207.150 111.736  0.00  0.00    -0.083 Cl
ATOM     17  C9   11 d          -8.896 208.667 112.113  0.00  0.00     0.025 A 
ATOM     18  C10  11 d          -7.980 209.432 112.849  0.00  0.00     0.002 A 
ATOM     19  C11  11 d          -8.184 209.639 114.220  0.00  0.00     0.002 A 
ATOM     20  C12  11 d          -9.300 209.078 114.856  0.00  0.00     0.027 A 
ENDBRANCH  11  14
ENDBRANCH   1  11
TORSDOF 3
ENDMDL
MODEL 3
REMARK VINA RESULT:      -7.9      3.496      6.618
REMARK  3 active torsions:
REMARK  status: ('A' for Active; 'I' for Inactive)
REMARK    1  A    between atoms: C4_5  and  N1_8 
REMARK    2  A    between atoms: N1_8  and  S1_9 
REMARK    3  A    between atoms: S1_9  and  C7_10 
ROOT
ATOM      1  N1   11 d         -11.622 207.830 112.712  0.00  0.00    -0.281 N 
ATOM      2  H4   11 d         -11.808 207.909 111.739  0.00  0.00     0.179 HD
ENDROOT
BRANCH   1   3
ATOM      3  C4   11 d         -10.373 208.213 113.192  0.00  0.00     0.044 A 
ATOM      4  C3   11 d          -9.268 208.148 112.315  0.00  0.00     0.057 A 
ATOM      5  C2   11 d          -7.978 208.492 112.750  0.00  0.00     0.074 A 
ATOM      6  C1   11 d          -7.776 208.920 114.072  0.00  0.00     0.138 A 
ATOM      7 Cl1   11 d          -6.609 208.371 111.616  0.00  0.00    -0.081 Cl
ATOM      8  C6   11 d          -8.863 208.996 114.953  0.00  0.00     0.046 A 
ATOM      9  F1   11 d          -6.530 209.260 114.513  0.00  0.00    -0.204 F 
ATOM     10  C5   11 d         -10.149 208.643 114.522  0.00  0.00     0.033 A 
ENDBRANCH   1   3
BRANCH   1  11
ATOM     11  S1   11 d         -12.871 207.215 113.667  0.00  0.00     0.264 S 
ATOM     12  O1   11 d         -13.206 208.209 114.783  0.00  0.00    -0.200 OA
ATOM     13  O2   11 d         -12.386 205.930 114.343  0.00  0.00    -0.200 OA
BRANCH  11  14
ATOM     14  C7   11 d         -14.357 206.847 112.711  0.00  0.00     0.101 A 
ATOM     15  C8   11 d         -15.477 206.218 113.301  0.00  0.00     0.057 A 
ATOM     16 Cl2   11 d         -15.502 205.722 115.017  0.00  0.00    -0.083 Cl
ATOM     17  C9   11 d         -16.620 205.954 112.529  0.00  0.00     0.025 A 
ATOM     18  C10  11 d         -16.662 206.321 111.177  0.00  0.00     0.002 A 
ATOM     19  C11  11 d         -15.556 206.948 110.588  0.00  0.00     0.002 A 
ATOM     20  C12  11 d         -14.407 207.205 111.349  0.00  0.00     0.027 A 
ENDBRANCH  11  14
ENDBRANCH   1  11
TORSDOF 3
ENDMDL
MODEL 4
REMARK VINA RESULT:      -7.6      3.289      6.530
REMARK  3 active torsions:
REMARK  status: ('A' for Active; 'I' for Inactive)
REMARK    1  A    between atoms: C4_5  and  N1_8 
REMARK    2  A    between atoms: N1_8  and  S1_9 
REMARK    3  A    between atoms: S1_9  and  C7_10 
ROOT
ATOM      1  N1   11 d         -11.955 208.334 114.019  0.00  0.00    -0.281 N 
ATOM      2  H4   11 d         -12.509 209.091 113.690  0.00  0.00     0.179 HD
ENDROOT
BRANCH   1   3
ATOM      3  C4   11 d         -10.586 208.523 114.181  0.00  0.00     0.044 A 
ATOM      4  C3   11 d          -9.752 208.404 113.047  0.00  0.00     0.057 A 
ATOM      5  C2   11 d          -8.361 208.553 113.154  0.00  0.00     0.074 A 
ATOM      6  C1   11 d          -7.781 208.837 114.401  0.00  0.00     0.138 A 
ATOM      7 Cl1   11 d          -7.345 208.371 111.701  0.00  0.00    -0.081 Cl
ATOM      8  C6   11 d          -8.594 208.965 115.534  0.00  0.00     0.046 A 
ATOM      9  F1   11 d          -6.430 208.987 114.524  0.00  0.00    -0.204 F 
ATOM     10  C5   11 d          -9.983 208.806 115.430  0.00  0.00     0.033 A 
ENDBRANCH   1   3
BRANCH   1  11
ATOM     11  S1   11 d         -12.769 206.887 114.327  0.00  0.00     0.264 S 
ATOM     12  O1   11 d         -13.370 206.922 115.735  0.00  0.00    -0.200 OA
ATOM     13  O2   11 d         -11.757 205.739 114.301  0.00  0.00    -0.200 OA
BRANCH  11  14
ATOM     14  C7   11 d         -14.066 206.551 113.117  0.00  0.00     0.101 A 
ATOM     15  C8   11 d         -13.778 206.443 111.738  0.00  0.00     0.057 A 
ATOM     16 Cl2   11 d         -12.128 206.650 111.086  0.00  0.00    -0.083 Cl
ATOM     17  C9   11 d         -14.810 206.172 110.825  0.00  0.00     0.025 A 
ATOM     18  C10  11 d         -16.126 205.997 111.275  0.00  0.00     0.002 A 
ATOM     19  C11  11 d         -16.417 206.099 112.643  0.00  0.00     0.002 A 
ATOM     20  C12  11 d         -15.393 206.380 113.559  0.00  0.00     0.027 A 
ENDBRANCH  11  14
ENDBRANCH   1  11
TORSDOF 3
ENDMDL
MODEL 5
REMARK VINA RESULT:      -7.4      3.908      5.932
REMARK  3 active torsions:
REMARK  status: ('A' for Active; 'I' for Inactive)
REMARK    1  A    between atoms: C4_5  and  N1_8 
REMARK    2  A    between atoms: N1_8  and  S1_9 
REMARK    3  A    between atoms: S1_9  and  C7_10 
ROOT
ATOM      1  N1   11 d         -13.716 207.276 115.476  0.00  0.00    -0.281 N 
ATOM      2  H4   11 d         -13.967 208.207 115.718  0.00  0.00     0.179 HD
ENDROOT
BRANCH   1   3
ATOM      3  C4   11 d         -14.069 206.239 116.335  0.00  0.00     0.044 A 
ATOM      4  C3   11 d         -13.752 206.364 117.705  0.00  0.00     0.057 A 
ATOM      5  C2   11 d         -14.053 205.339 118.614  0.00  0.00     0.074 A 
ATOM      6  C1   11 d         -14.693 204.172 118.166  0.00  0.00     0.138 A 
ATOM      7 Cl1   11 d         -13.613 205.530 120.330  0.00  0.00    -0.081 Cl
ATOM      8  C6   11 d         -15.021 204.034 116.811  0.00  0.00     0.046 A 
ATOM      9  F1   11 d         -14.996 203.164 119.035  0.00  0.00    -0.204 F 
ATOM     10  C5   11 d         -14.709 205.054 115.900  0.00  0.00     0.033 A 
ENDBRANCH   1   3
BRANCH   1  11
ATOM     11  S1   11 d         -12.867 207.080 114.030  0.00  0.00     0.264 S 
ATOM     12  O1   11 d         -11.985 205.832 114.114  0.00  0.00    -0.200 OA
ATOM     13  O2   11 d         -11.932 208.277 113.843  0.00  0.00    -0.200 OA
BRANCH  11  14
ATOM     14  C7   11 d         -13.958 206.962 112.597  0.00  0.00     0.101 A 
ATOM     15  C8   11 d         -13.443 206.857 111.285  0.00  0.00     0.057 A 
ATOM     16 Cl2   11 d         -11.690 206.855 110.942  0.00  0.00    -0.083 Cl
ATOM     17  C9   11 d         -14.321 206.758 110.193  0.00  0.00     0.025 A 
ATOM     18  C10  11 d         -15.708 206.753 110.397  0.00  0.00     0.002 A 
ATOM     19  C11  11 d         -16.224 206.853 111.696  0.00  0.00     0.002 A 
ATOM     20  C12  11 d         -15.354 206.963 112.791  0.00  0.00     0.027 A 
ENDBRANCH  11  14
ENDBRANCH   1  11
TORSDOF 3
ENDMDL
MODEL 6
REMARK VINA RESULT:      -7.3      1.828      2.205
REMARK  3 active torsions:
REMARK  status: ('A' for Active; 'I' for Inactive)
REMARK    1  A    between atoms: C4_5  and  N1_8 
REMARK    2  A    between atoms: N1_8  and  S1_9 
REMARK    3  A    between atoms: S1_9  and  C7_10 
ROOT
ATOM      1  N1   11 d         -13.846 205.561 113.847  0.00  0.00    -0.281 N 
ATOM      2  H4   11 d         -13.575 204.610 113.950  0.00  0.00     0.179 HD
ENDROOT
BRANCH   1   3
ATOM      3  C4   11 d         -14.281 206.006 112.603  0.00  0.00     0.044 A 
ATOM      4  C3   11 d         -13.318 206.479 111.684  0.00  0.00     0.057 A 
ATOM      5  C2   11 d         -13.698 206.970 110.425  0.00  0.00     0.074 A 
ATOM      6  C1   11 d         -15.055 206.983 110.060  0.00  0.00     0.138 A 
ATOM      7 Cl1   11 d         -12.452 207.579 109.307  0.00  0.00    -0.081 Cl
ATOM      8  C6   11 d         -16.022 206.511 110.957  0.00  0.00     0.046 A 
ATOM      9  F1   11 d         -15.444 207.455 108.840  0.00  0.00    -0.204 F 
ATOM     10  C5   11 d         -15.643 206.031 112.218  0.00  0.00     0.033 A 
ENDBRANCH   1   3
BRANCH   1  11
ATOM     11  S1   11 d         -13.723 206.528 115.225  0.00  0.00     0.264 S 
ATOM     12  O1   11 d         -13.883 205.665 116.479  0.00  0.00    -0.200 OA
ATOM     13  O2   11 d         -14.877 207.533 115.224  0.00  0.00    -0.200 OA
BRANCH  11  14
ATOM     14  C7   11 d         -12.162 207.432 115.301  0.00  0.00     0.101 A 
ATOM     15  C8   11 d         -11.649 207.916 116.526  0.00  0.00     0.057 A 
ATOM     16 Cl2   11 d         -12.506 207.694 118.077  0.00  0.00    -0.083 Cl
ATOM     17  C9   11 d         -10.427 208.607 116.549  0.00  0.00     0.025 A 
ATOM     18  C10  11 d          -9.706 208.812 115.364  0.00  0.00     0.002 A 
ATOM     19  C11  11 d         -10.208 208.331 114.148  0.00  0.00     0.002 A 
ATOM     20  C12  11 d         -11.433 207.649 114.115  0.00  0.00     0.027 A 
ENDBRANCH  11  14
ENDBRANCH   1  11
TORSDOF 3
ENDMDL
MODEL 7
REMARK VINA RESULT:      -7.3      3.709      6.585
REMARK  3 active torsions:
REMARK  status: ('A' for Active; 'I' for Inactive)
REMARK    1  A    between atoms: C4_5  and  N1_8 
REMARK    2  A    between atoms: N1_8  and  S1_9 
REMARK    3  A    between atoms: S1_9  and  C7_10 
ROOT
ATOM      1  N1   11 d         -12.626 208.194 114.363  0.00  0.00    -0.281 N 
ATOM      2  H4   11 d         -13.161 209.016 114.200  0.00  0.00     0.179 HD
ENDROOT
BRANCH   1   3
ATOM      3  C4   11 d         -11.952 208.057 115.572  0.00  0.00     0.044 A 
ATOM      4  C3   11 d         -12.578 207.337 116.613  0.00  0.00     0.057 A 
ATOM      5  C2   11 d         -11.961 207.192 117.865  0.00  0.00     0.074 A 
ATOM      6  C1   11 d         -10.696 207.757 118.092  0.00  0.00     0.138 A 
ATOM      7 Cl1   11 d         -12.800 206.296 119.157  0.00  0.00    -0.081 Cl
ATOM      8  C6   11 d         -10.057 208.469 117.068  0.00  0.00     0.046 A 
ATOM      9  F1   11 d         -10.080 207.625 119.303  0.00  0.00    -0.204 F 
ATOM     10  C5   11 d         -10.678 208.623 115.820  0.00  0.00     0.033 A 
ENDBRANCH   1   3
BRANCH   1  11
ATOM     11  S1   11 d         -12.598 207.058 113.113  0.00  0.00     0.264 S 
ATOM     12  O1   11 d         -12.015 205.739 113.627  0.00  0.00    -0.200 OA
ATOM     13  O2   11 d         -11.663 207.562 112.012  0.00  0.00    -0.200 OA
BRANCH  11  14
ATOM     14  C7   11 d         -14.232 206.769 112.404  0.00  0.00     0.101 A 
ATOM     15  C8   11 d         -15.277 206.198 113.167  0.00  0.00     0.057 A 
ATOM     16 Cl2   11 d         -15.058 205.702 114.869  0.00  0.00    -0.083 Cl
ATOM     17  C9   11 d         -16.539 205.994 112.585  0.00  0.00     0.025 A 
ATOM     18  C10  11 d         -16.774 206.364 111.254  0.00  0.00     0.002 A 
ATOM     19  C11  11 d         -15.743 206.934 110.494  0.00  0.00     0.002 A 
ATOM     20  C12  11 d         -14.477 207.130 111.064  0.00  0.00     0.027 A 
ENDBRANCH  11  14
ENDBRANCH   1  11
TORSDOF 3
ENDMDL
MODEL 8
REMARK VINA RESULT:      -7.3      3.223      6.642
REMARK  3 active torsions:
REMARK  status: ('A' for Active; 'I' for Inactive)
REMARK    1  A    between atoms: C4_5  and  N1_8 
REMARK    2  A    between atoms: N1_8  and  S1_9 
REMARK    3  A    between atoms: S1_9  and  C7_10 
ROOT
ATOM      1  N1   11 d         -12.708 208.290 114.739  0.00  0.00    -0.281 N 
ATOM      2  H4   11 d         -13.250 209.115 114.628  0.00  0.00     0.179 HD
ENDROOT
BRANCH   1   3
ATOM      3  C4   11 d         -11.383 208.404 115.149  0.00  0.00     0.044 A 
ATOM      4  C3   11 d         -11.081 208.192 116.512  0.00  0.00     0.057 A 
ATOM      5  C2   11 d          -9.769 208.324 116.992  0.00  0.00     0.074 A 
ATOM      6  C1   11 d          -8.731 208.659 116.108  0.00  0.00     0.138 A 
ATOM      7 Cl1   11 d          -9.438 208.070 118.725  0.00  0.00    -0.081 Cl
ATOM      8  C6   11 d          -9.012 208.867 114.751  0.00  0.00     0.046 A 
ATOM      9  F1   11 d          -7.448 208.790 116.555  0.00  0.00    -0.204 F 
ATOM     10  C5   11 d         -10.325 208.746 114.274  0.00  0.00     0.033 A 
ENDBRANCH   1   3
BRANCH   1  11
ATOM     11  S1   11 d         -13.483 206.830 114.391  0.00  0.00     0.264 S 
ATOM     12  O1   11 d         -14.504 206.514 115.488  0.00  0.00    -0.200 OA
ATOM     13  O2   11 d         -12.445 205.706 114.408  0.00  0.00    -0.200 OA
BRANCH  11  14
ATOM     14  C7   11 d         -14.301 206.847 112.782  0.00  0.00     0.101 A 
ATOM     15  C8   11 d         -13.560 206.862 111.579  0.00  0.00     0.057 A 
ATOM     16 Cl2   11 d         -11.774 206.890 111.555  0.00  0.00    -0.083 Cl
ATOM     17  C9   11 d         -14.229 206.866 110.344  0.00  0.00     0.025 A 
ATOM     18  C10  11 d         -15.630 206.843 110.297  0.00  0.00     0.002 A 
ATOM     19  C11  11 d         -16.369 206.824 111.487  0.00  0.00     0.002 A 
ATOM     20  C12  11 d         -15.709 206.831 112.724  0.00  0.00     0.027 A 
ENDBRANCH  11  14
ENDBRANCH   1  11
TORSDOF 3
ENDMDL
MODEL 9
REMARK VINA RESULT:      -7.2      2.733      3.477
REMARK  3 active torsions:
REMARK  status: ('A' for Active; 'I' for Inactive)
REMARK    1  A    between atoms: C4_5  and  N1_8 
REMARK    2  A    between atoms: N1_8  and  S1_9 
REMARK    3  A    between atoms: S1_9  and  C7_10 
ROOT
ATOM      1  N1   11 d         -13.239 205.694 113.894  0.00  0.00    -0.281 N 
ATOM      2  H4   11 d         -12.438 205.106 113.909  0.00  0.00     0.179 HD
ENDROOT
BRANCH   1   3
ATOM      3  C4   11 d         -13.773 206.075 112.667  0.00  0.00     0.044 A 
ATOM      4  C3   11 d         -12.900 206.595 111.686  0.00  0.00     0.057 A 
ATOM      5  C2   11 d         -13.383 207.024 110.441  0.00  0.00     0.074 A 
ATOM      6  C1   11 d         -14.754 206.927 110.152  0.00  0.00     0.138 A 
ATOM      7 Cl1   11 d         -12.249 207.696 109.243  0.00  0.00    -0.081 Cl
ATOM      8  C6   11 d         -15.633 206.407 111.110  0.00  0.00     0.046 A 
ATOM      9  F1   11 d         -15.243 207.338 108.945  0.00  0.00    -0.204 F 
ATOM     10  C5   11 d         -15.152 205.988 112.359  0.00  0.00     0.033 A 
ENDBRANCH   1   3
BRANCH   1  11
ATOM     11  S1   11 d         -13.845 206.172 115.396  0.00  0.00     0.264 S 
ATOM     12  O1   11 d         -14.800 205.102 115.932  0.00  0.00    -0.200 OA
ATOM     13  O2   11 d         -14.666 207.451 115.210  0.00  0.00    -0.200 OA
BRANCH  11  14
ATOM     14  C7   11 d         -12.540 206.486 116.602  0.00  0.00     0.101 A 
ATOM     15  C8   11 d         -11.545 207.464 116.375  0.00  0.00     0.057 A 
ATOM     16 Cl2   11 d         -11.488 208.441 114.881  0.00  0.00    -0.083 Cl
ATOM     17  C9   11 d         -10.549 207.688 117.339  0.00  0.00     0.025 A 
ATOM     18  C10  11 d         -10.541 206.954 118.533  0.00  0.00     0.002 A 
ATOM     19  C11  11 d         -11.527 205.986 118.766  0.00  0.00     0.002 A 
ATOM     20  C12  11 d         -12.519 205.749 117.803  0.00  0.00     0.027 A 
ENDBRANCH  11  14
ENDBRANCH   1  11
TORSDOF 3
ENDMDL
MODEL 10
REMARK VINA RESULT:      -7.1      3.936      5.371
REMARK  3 active torsions:
REMARK  status: ('A' for Active; 'I' for Inactive)
REMARK    1  A    between atoms: C4_5  and  N1_8 
REMARK    2  A    between atoms: N1_8  and  S1_9 
REMARK    3  A    between atoms: S1_9  and  C7_10 
ROOT
ATOM      1  N1   11 d         -13.715 205.712 113.636  0.00  0.00    -0.281 N 
ATOM      2  H4   11 d         -13.837 204.762 113.372  0.00  0.00     0.179 HD
ENDROOT
BRANCH   1   3
ATOM      3  C4   11 d         -12.641 206.424 113.112  0.00  0.00     0.044 A 
ATOM      4  C3   11 d         -12.607 206.662 111.720  0.00  0.00     0.057 A 
ATOM      5  C2   11 d         -11.534 207.347 111.129  0.00  0.00     0.074 A 
ATOM      6  C1   11 d         -10.480 207.819 111.927  0.00  0.00     0.138 A 
ATOM      7 Cl1   11 d         -11.521 207.602 109.365  0.00  0.00    -0.081 Cl
ATOM      8  C6   11 d         -10.501 207.599 113.310  0.00  0.00     0.046 A 
ATOM      9  F1   11 d          -9.429 208.489 111.371  0.00  0.00    -0.204 F 
ATOM     10  C5   11 d         -11.567 206.904 113.900  0.00  0.00     0.033 A 
ENDBRANCH   1   3
BRANCH   1  11
ATOM     11  S1   11 d         -14.847 206.340 114.720  0.00  0.00     0.264 S 
ATOM     12  O1   11 d         -16.135 205.515 114.658  0.00  0.00    -0.200 OA
ATOM     13  O2   11 d         -15.206 207.763 114.286  0.00  0.00    -0.200 OA
BRANCH  11  14
ATOM     14  C7   11 d         -14.231 206.385 116.416  0.00  0.00     0.101 A 
ATOM     15  C8   11 d         -14.282 205.245 117.250  0.00  0.00     0.057 A 
ATOM     16 Cl2   11 d         -14.974 203.691 116.704  0.00  0.00    -0.083 Cl
ATOM     17  C9   11 d         -13.786 205.313 118.562  0.00  0.00     0.025 A 
ATOM     18  C10  11 d         -13.230 206.505 119.048  0.00  0.00     0.002 A 
ATOM     19  C11  11 d         -13.173 207.637 118.225  0.00  0.00     0.002 A 
ATOM     20  C12  11 d         -13.677 207.580 116.917  0.00  0.00     0.027 A 
ENDBRANCH  11  14
ENDBRANCH   1  11
TORSDOF 3
ENDMDL
MODEL 11
REMARK VINA RESULT:      -7.0      3.485      5.024
REMARK  3 active torsions:
REMARK  status: ('A' for Active; 'I' for Inactive)
REMARK    1  A    between atoms: C4_5  and  N1_8 
REMARK    2  A    between atoms: N1_8  and  S1_9 
REMARK    3  A    between atoms: S1_9  and  C7_10 
ROOT
ATOM      1  N1   11 d         -14.398 205.469 112.866  0.00  0.00    -0.281 N 
ATOM      2  H4   11 d         -14.552 204.500 112.708  0.00  0.00     0.179 HD
ENDROOT
BRANCH   1   3
ATOM      3  C4   11 d         -13.434 206.130 112.112  0.00  0.00     0.044 A 
ATOM      4  C3   11 d         -12.263 206.579 112.762  0.00  0.00     0.057 A 
ATOM      5  C2   11 d         -11.269 207.279 112.062  0.00  0.00     0.074 A 
ATOM      6  C1   11 d         -11.426 207.531 110.689  0.00  0.00     0.138 A 
ATOM      7 Cl1   11 d          -9.820 207.848 112.928  0.00  0.00    -0.081 Cl
ATOM      8  C6   11 d         -12.578 207.086 110.027  0.00  0.00     0.046 A 
ATOM      9  F1   11 d         -10.470 208.209 109.990  0.00  0.00    -0.204 F 
ATOM     10  C5   11 d         -13.576 206.396 110.729  0.00  0.00     0.033 A 
ENDBRANCH   1   3
BRANCH   1  11
ATOM     11  S1   11 d         -15.341 206.191 114.066  0.00  0.00     0.264 S 
ATOM     12  O1   11 d         -16.651 205.415 114.231  0.00  0.00    -0.200 OA
ATOM     13  O2   11 d         -15.713 207.605 113.615  0.00  0.00    -0.200 OA
BRANCH  11  14
ATOM     14  C7   11 d         -14.487 206.290 115.653  0.00  0.00     0.101 A 
ATOM     15  C8   11 d         -13.853 207.480 116.076  0.00  0.00     0.057 A 
ATOM     16 Cl2   11 d         -13.828 208.959 115.075  0.00  0.00    -0.083 Cl
ATOM     17  C9   11 d         -13.204 207.524 117.321  0.00  0.00     0.025 A 
ATOM     18  C10  11 d         -13.190 206.397 118.154  0.00  0.00     0.002 A 
ATOM     19  C11  11 d         -13.820 205.215 117.740  0.00  0.00     0.002 A 
ATOM     20  C12  11 d         -14.461 205.159 116.494  0.00  0.00     0.027 A 
ENDBRANCH  11  14
ENDBRANCH   1  11
TORSDOF 3
ENDMDL
MODEL 12
REMARK VINA RESULT:      -6.9      3.042      4.031
REMARK  3 active torsions:
REMARK  status: ('A' for Active; 'I' for Inactive)
REMARK    1  A    between atoms: C4_5  and  N1_8 
REMARK    2  A    between atoms: N1_8  and  S1_9 
REMARK    3  A    between atoms: S1_9  and  C7_10 
ROOT
ATOM      1  N1   11 d         -11.783 206.412 114.167  0.00  0.00    -0.281 N 
ATOM      2  H4   11 d         -11.360 205.548 114.415  0.00  0.00     0.179 HD
ENDROOT
BRANCH   1   3
ATOM      3  C4   11 d         -12.516 206.489 112.987  0.00  0.00     0.044 A 
ATOM      4  C3   11 d         -13.871 206.090 113.010  0.00  0.00     0.057 A 
ATOM      5  C2   11 d         -14.653 206.115 111.846  0.00  0.00     0.074 A 
ATOM      6  C1   11 d         -14.093 206.556 110.636  0.00  0.00     0.138 A 
ATOM      7 Cl1   11 d         -16.351 205.580 111.917  0.00  0.00    -0.081 Cl
ATOM      8  C6   11 d         -12.753 206.962 110.596  0.00  0.00     0.046 A 
ATOM      9  F1   11 d         -14.838 206.590 109.493  0.00  0.00    -0.204 F 
ATOM     10  C5   11 d         -11.968 206.926 111.758  0.00  0.00     0.033 A 
ENDBRANCH   1   3
BRANCH   1  11
ATOM     11  S1   11 d         -11.535 207.700 115.230  0.00  0.00     0.264 S 
ATOM     12  O1   11 d         -12.801 208.558 115.307  0.00  0.00    -0.200 OA
ATOM     13  O2   11 d         -10.424 208.592 114.672  0.00  0.00    -0.200 OA
BRANCH  11  14
ATOM     14  C7   11 d         -11.068 207.152 116.885  0.00  0.00     0.101 A 
ATOM     15  C8   11 d         -11.900 206.295 117.641  0.00  0.00     0.057 A 
ATOM     16 Cl2   11 d         -13.475 205.711 117.033  0.00  0.00    -0.083 Cl
ATOM     17  C9   11 d         -11.501 205.882 118.922  0.00  0.00     0.025 A 
ATOM     18  C10  11 d         -10.276 206.305 119.454  0.00  0.00     0.002 A 
ATOM     19  C11  11 d          -9.445 207.152 118.708  0.00  0.00     0.002 A 
ATOM     20  C12  11 d          -9.841 207.578 117.432  0.00  0.00     0.027 A 
ENDBRANCH  11  14
ENDBRANCH   1  11
TORSDOF 3
ENDMDL
MODEL 13
REMARK VINA RESULT:      -6.7      3.246      5.027
REMARK  3 active torsions:
REMARK  status: ('A' for Active; 'I' for Inactive)
REMARK    1  A    between atoms: C4_5  and  N1_8 
REMARK    2  A    between atoms: N1_8  and  S1_9 
REMARK    3  A    between atoms: S1_9  and  C7_10 
ROOT
ATOM      1  N1   11 d         -12.229 205.871 114.702  0.00  0.00    -0.281 N 
ATOM      2  H4   11 d         -11.451 205.265 114.830  0.00  0.00     0.179 HD
ENDROOT
BRANCH   1   3
ATOM      3  C4   11 d         -12.745 206.044 113.422  0.00  0.00     0.044 A 
ATOM      4  C3   11 d         -11.906 206.597 112.429  0.00  0.00     0.057 A 
ATOM      5  C2   11 d         -12.378 206.825 111.127  0.00  0.00     0.074 A 
ATOM      6  C1   11 d         -13.700 206.490 110.794  0.00  0.00     0.138 A 
ATOM      7 Cl1   11 d         -11.292 207.548 109.914  0.00  0.00    -0.081 Cl
ATOM      8  C6   11 d         -14.544 205.934 111.764  0.00  0.00     0.046 A 
ATOM      9  F1   11 d         -14.177 206.702 109.532  0.00  0.00    -0.204 F 
ATOM     10  C5   11 d         -14.075 205.716 113.068  0.00  0.00     0.033 A 
ENDBRANCH   1   3
BRANCH   1  11
ATOM     11  S1   11 d         -12.822 206.631 116.088  0.00  0.00     0.264 S 
ATOM     12  O1   11 d         -13.739 207.790 115.690  0.00  0.00    -0.200 OA
ATOM     13  O2   11 d         -11.646 207.236 116.858  0.00  0.00    -0.200 OA
BRANCH  11  14
ATOM     14  C7   11 d         -13.710 205.496 117.175  0.00  0.00     0.101 A 
ATOM     15  C8   11 d         -14.084 205.871 118.486  0.00  0.00     0.057 A 
ATOM     16 Cl2   11 d         -13.694 207.473 119.171  0.00  0.00    -0.083 Cl
ATOM     17  C9   11 d         -14.782 204.965 119.302  0.00  0.00     0.025 A 
ATOM     18  C10  11 d         -15.119 203.693 118.820  0.00  0.00     0.002 A 
ATOM     19  C11  11 d         -14.754 203.317 117.521  0.00  0.00     0.002 A 
ATOM     20  C12  11 d         -14.047 204.212 116.704  0.00  0.00     0.027 A 
ENDBRANCH  11  14
ENDBRANCH   1  11
TORSDOF 3
ENDMDL
MODEL 14
REMARK VINA RESULT:      -6.7      5.107      6.598
REMARK  3 active torsions:
REMARK  status: ('A' for Active; 'I' for Inactive)
REMARK    1  A    between atoms: C4_5  and  N1_8 
REMARK    2  A    between atoms: N1_8  and  S1_9 
REMARK    3  A    between atoms: S1_9  and  C7_10 
ROOT
ATOM      1  N1   11 d          -6.528 209.414 112.961  0.00  0.00    -0.281 N 
ATOM      2  H4   11 d          -6.060 209.475 112.086  0.00  0.00     0.179 HD
ENDROOT
BRANCH   1   3
ATOM      3  C4   11 d          -7.860 209.015 112.986  0.00  0.00     0.044 A 
ATOM      4  C3   11 d          -8.492 208.703 111.762  0.00  0.00     0.057 A 
ATOM      5  C2   11 d          -9.843 208.325 111.720  0.00  0.00     0.074 A 
ATOM      6  C1   11 d         -10.583 208.240 112.910  0.00  0.00     0.138 A 
ATOM      7 Cl1   11 d         -10.605 207.964 110.150  0.00  0.00    -0.081 Cl
ATOM      8  C6   11 d          -9.970 208.539 114.134  0.00  0.00     0.046 A 
ATOM      9  F1   11 d         -11.897 207.872 112.890  0.00  0.00    -0.204 F 
ATOM     10  C5   11 d          -8.623 208.928 114.175  0.00  0.00     0.033 A 
ENDBRANCH   1   3
BRANCH   1  11
ATOM     11  S1   11 d          -5.621 209.825 114.325  0.00  0.00     0.264 S 
ATOM     12  O1   11 d          -6.310 210.967 115.078  0.00  0.00    -0.200 OA
ATOM     13  O2   11 d          -4.257 210.348 113.869  0.00  0.00    -0.200 OA
BRANCH  11  14
ATOM     14  C7   11 d          -5.369 208.426 115.437  0.00  0.00     0.101 A 
ATOM     15  C8   11 d          -4.552 207.332 115.072  0.00  0.00     0.057 A 
ATOM     16 Cl2   11 d          -3.731 207.238 113.489  0.00  0.00    -0.083 Cl
ATOM     17  C9   11 d          -4.372 206.263 115.965  0.00  0.00     0.025 A 
ATOM     18  C10  11 d          -4.989 206.280 117.224  0.00  0.00     0.002 A 
ATOM     19  C11  11 d          -5.797 207.364 117.592  0.00  0.00     0.002 A 
ATOM     20  C12  11 d          -5.991 208.429 116.701  0.00  0.00     0.027 A 
ENDBRANCH  11  14
ENDBRANCH   1  11
TORSDOF 3
ENDMDL
MODEL 15
REMARK VINA RESULT:      -6.6      2.451      3.150
REMARK  3 active torsions:
REMARK  status: ('A' for Active; 'I' for Inactive)
REMARK    1  A    between atoms: C4_5  and  N1_8 
REMARK    2  A    between atoms: N1_8  and  S1_9 
REMARK    3  A    between atoms: S1_9  and  C7_10 
ROOT
ATOM      1  N1   11 d         -10.816 206.818 115.287  0.00  0.00    -0.281 N 
ATOM      2  H4   11 d         -10.451 206.016 115.748  0.00  0.00     0.179 HD
ENDROOT
BRANCH   1   3
ATOM      3  C4   11 d         -11.578 206.645 114.136  0.00  0.00     0.044 A 
ATOM      4  C3   11 d         -11.032 207.056 112.900  0.00  0.00     0.057 A 
ATOM      5  C2   11 d         -11.764 206.936 111.710  0.00  0.00     0.074 A 
ATOM      6  C1   11 d         -13.057 206.388 111.736  0.00  0.00     0.138 A 
ATOM      7 Cl1   11 d         -11.045 207.490 110.177  0.00  0.00    -0.081 Cl
ATOM      8  C6   11 d         -13.612 205.969 112.952  0.00  0.00     0.046 A 
ATOM      9  F1   11 d         -13.785 206.262 110.588  0.00  0.00    -0.204 F 
ATOM     10  C5   11 d         -12.884 206.099 114.143  0.00  0.00     0.033 A 
ENDBRANCH   1   3
BRANCH   1  11
ATOM     11  S1   11 d         -10.439 208.314 115.975  0.00  0.00     0.264 S 
ATOM     12  O1   11 d         -10.769 208.293 117.470  0.00  0.00    -0.200 OA
ATOM     13  O2   11 d         -11.324 209.386 115.335  0.00  0.00    -0.200 OA
BRANCH  11  14
ATOM     14  C7   11 d          -8.708 208.768 115.738  0.00  0.00     0.101 A 
ATOM     15  C8   11 d          -7.701 208.325 116.625  0.00  0.00     0.057 A 
ATOM     16 Cl2   11 d          -8.060 207.308 118.049  0.00  0.00    -0.083 Cl
ATOM     17  C9   11 d          -6.363 208.691 116.406  0.00  0.00     0.025 A 
ATOM     18  C10  11 d          -6.017 209.486 115.305  0.00  0.00     0.002 A 
ATOM     19  C11  11 d          -7.011 209.926 114.420  0.00  0.00     0.002 A 
ATOM     20  C12  11 d          -8.351 209.574 114.639  0.00  0.00     0.027 A 
ENDBRANCH  11  14
ENDBRANCH   1  11
TORSDOF 3
ENDMDL
MODEL 16
REMARK VINA RESULT:      -6.6      4.921      8.099
REMARK  3 active torsions:
REMARK  status: ('A' for Active; 'I' for Inactive)
REMARK    1  A    between atoms: C4_5  and  N1_8 
REMARK    2  A    between atoms: N1_8  and  S1_9 
REMARK    3  A    between atoms: S1_9  and  C7_10 
ROOT
ATOM      1  N1   11 d          -7.690 208.186 114.298  0.00  0.00    -0.281 N 
ATOM      2  H4   11 d          -7.619 207.195 114.277  0.00  0.00     0.179 HD
ENDROOT
BRANCH   1   3
ATOM      3  C4   11 d          -6.962 208.893 115.250  0.00  0.00     0.044 A 
ATOM      4  C3   11 d          -6.965 208.424 116.583  0.00  0.00     0.057 A 
ATOM      5  C2   11 d          -6.276 209.112 117.593  0.00  0.00     0.074 A 
ATOM      6  C1   11 d          -5.559 210.278 117.282  0.00  0.00     0.138 A 
ATOM      7 Cl1   11 d          -6.327 208.497 119.265  0.00  0.00    -0.081 Cl
ATOM      8  C6   11 d          -5.539 210.754 115.965  0.00  0.00     0.046 A 
ATOM      9  F1   11 d          -4.880 210.960 118.251  0.00  0.00    -0.204 F 
ATOM     10  C5   11 d          -6.237 210.073 114.957  0.00  0.00     0.033 A 
ENDBRANCH   1   3
BRANCH   1  11
ATOM     11  S1   11 d          -8.718 208.889 113.157  0.00  0.00     0.264 S 
ATOM     12  O1   11 d          -8.052 208.867 111.779  0.00  0.00    -0.200 OA
ATOM     13  O2   11 d          -8.932 210.358 113.528  0.00  0.00    -0.200 OA
BRANCH  11  14
ATOM     14  C7   11 d         -10.323 208.068 113.073  0.00  0.00     0.101 A 
ATOM     15  C8   11 d         -11.155 207.957 114.210  0.00  0.00     0.057 A 
ATOM     16 Cl2   11 d         -10.680 208.594 115.810  0.00  0.00    -0.083 Cl
ATOM     17  C9   11 d         -12.402 207.319 114.107  0.00  0.00     0.025 A 
ATOM     18  C10  11 d         -12.833 206.800 112.878  0.00  0.00     0.002 A 
ATOM     19  C11  11 d         -12.013 206.910 111.747  0.00  0.00     0.002 A 
ATOM     20  C12  11 d         -10.762 207.536 111.844  0.00  0.00     0.027 A 
ENDBRANCH  11  14
ENDBRANCH   1  11
TORSDOF 3
ENDMDL
MODEL 17
REMARK VINA RESULT:      -6.6      4.986      6.984
REMARK  3 active torsions:
REMARK  status: ('A' for Active; 'I' for Inactive)
REMARK    1  A    between atoms: C4_5  and  N1_8 
REMARK    2  A    between atoms: N1_8  and  S1_9 
REMARK    3  A    between atoms: S1_9  and  C7_10 
ROOT
ATOM      1  N1   11 d         -12.785 205.049 117.666  0.00  0.00    -0.281 N 
ATOM      2  H4   11 d         -12.038 204.417 117.845  0.00  0.00     0.179 HD
ENDROOT
BRANCH   1   3
ATOM      3  C4   11 d         -13.095 205.370 116.348  0.00  0.00     0.044 A 
ATOM      4  C3   11 d         -12.050 205.784 115.494  0.00  0.00     0.057 A 
ATOM      5  C2   11 d         -12.305 206.150 114.163  0.00  0.00     0.074 A 
ATOM      6  C1   11 d         -13.615 206.094 113.661  0.00  0.00     0.138 A 
ATOM      7 Cl1   11 d         -10.959 206.689 113.128  0.00  0.00    -0.081 Cl
ATOM      8  C6   11 d         -14.663 205.679 114.493  0.00  0.00     0.046 A 
ATOM      9  F1   11 d         -13.883 206.444 112.369  0.00  0.00    -0.204 F 
ATOM     10  C5   11 d         -14.410 205.324 115.826  0.00  0.00     0.033 A 
ENDBRANCH   1   3
BRANCH   1  11
ATOM     11  S1   11 d         -13.581 205.671 119.020  0.00  0.00     0.264 S 
ATOM     12  O1   11 d         -14.132 207.063 118.701  0.00  0.00    -0.200 OA
ATOM     13  O2   11 d         -12.566 205.839 120.152  0.00  0.00    -0.200 OA
BRANCH  11  14
ATOM     14  C7   11 d         -14.918 204.600 119.588  0.00  0.00     0.101 A 
ATOM     15  C8   11 d         -15.638 204.884 120.771  0.00  0.00     0.057 A 
ATOM     16 Cl2   11 d         -15.271 206.299 121.798  0.00  0.00    -0.083 Cl
ATOM     17  C9   11 d         -16.679 204.034 121.180  0.00  0.00     0.025 A 
ATOM     18  C10  11 d         -17.016 202.909 120.415  0.00  0.00     0.002 A 
ATOM     19  C11  11 d         -16.308 202.624 119.240  0.00  0.00     0.002 A 
ATOM     20  C12  11 d         -15.260 203.462 118.831  0.00  0.00     0.027 A 
ENDBRANCH  11  14
ENDBRANCH   1  11
TORSDOF 3
ENDMDL
MODEL 18
REMARK VINA RESULT:      -6.4      4.941      6.725
REMARK  3 active torsions:
REMARK  status: ('A' for Active; 'I' for Inactive)
REMARK    1  A    between atoms: C4_5  and  N1_8 
REMARK    2  A    between atoms: N1_8  and  S1_9 
REMARK    3  A    between atoms: S1_9  and  C7_10 
ROOT
ATOM      1  N1   11 d          -7.197 210.171 115.185  0.00  0.00    -0.281 N 
ATOM      2  H4   11 d          -7.158 211.164 115.150  0.00  0.00     0.179 HD
ENDROOT
BRANCH   1   3
ATOM      3  C4   11 d          -8.072 209.502 114.336  0.00  0.00     0.044 A 
ATOM      4  C3   11 d          -9.345 209.141 114.830  0.00  0.00     0.057 A 
ATOM      5  C2   11 d         -10.259 208.437 114.031  0.00  0.00     0.074 A 
ATOM      6  C1   11 d          -9.916 208.093 112.714  0.00  0.00     0.138 A 
ATOM      7 Cl1   11 d         -11.844 207.981 114.705  0.00  0.00    -0.081 Cl
ATOM      8  C6   11 d          -8.661 208.449 112.205  0.00  0.00     0.046 A 
ATOM      9  F1   11 d         -10.792 207.410 111.920  0.00  0.00    -0.204 F 
ATOM     10  C5   11 d          -7.743 209.143 113.007  0.00  0.00     0.033 A 
ENDBRANCH   1   3
BRANCH   1  11
ATOM     11  S1   11 d          -6.183 209.420 116.308  0.00  0.00     0.264 S 
ATOM     12  O1   11 d          -7.024 208.654 117.332  0.00  0.00    -0.200 OA
ATOM     13  O2   11 d          -5.417 210.499 117.076  0.00  0.00    -0.200 OA
BRANCH  11  14
ATOM     14  C7   11 d          -4.998 208.303 115.531  0.00  0.00     0.101 A 
ATOM     15  C8   11 d          -4.222 208.706 114.421  0.00  0.00     0.057 A 
ATOM     16 Cl2   11 d          -4.367 210.330 113.692  0.00  0.00    -0.083 Cl
ATOM     17  C9   11 d          -3.303 207.813 113.847  0.00  0.00     0.025 A 
ATOM     18  C10  11 d          -3.142 206.525 114.375  0.00  0.00     0.002 A 
ATOM     19  C11  11 d          -3.906 206.121 115.477  0.00  0.00     0.002 A 
ATOM     20  C12  11 d          -4.834 207.003 116.050  0.00  0.00     0.027 A 
ENDBRANCH  11  14
ENDBRANCH   1  11
TORSDOF 3
ENDMDL
MODEL 19
REMARK VINA RESULT:      -6.3      4.218      6.397
REMARK  3 active torsions:
REMARK  status: ('A' for Active; 'I' for Inactive)
REMARK    1  A    between atoms: C4_5  and  N1_8 
REMARK    2  A    between atoms: N1_8  and  S1_9 
REMARK    3  A    between atoms: S1_9  and  C7_10 
ROOT
ATOM      1  N1   11 d         -11.229 208.385 112.815  0.00  0.00    -0.281 N 
ATOM      2  H4   11 d         -11.635 209.082 112.235  0.00  0.00     0.179 HD
ENDROOT
BRANCH   1   3
ATOM      3  C4   11 d          -9.931 208.569 113.281  0.00  0.00     0.044 A 
ATOM      4  C3   11 d          -8.860 208.374 112.382  0.00  0.00     0.057 A 
ATOM      5  C2   11 d          -7.528 208.515 112.801  0.00  0.00     0.074 A 
ATOM      6  C1   11 d          -7.246 208.868 114.131  0.00  0.00     0.138 A 
ATOM      7 Cl1   11 d          -6.207 208.235 111.637  0.00  0.00    -0.081 Cl
ATOM      8  C6   11 d          -8.296 209.072 115.034  0.00  0.00     0.046 A 
ATOM      9  F1   11 d          -5.957 209.011 114.556  0.00  0.00    -0.204 F 
ATOM     10  C5   11 d          -9.627 208.921 114.619  0.00  0.00     0.033 A 
ENDBRANCH   1   3
BRANCH   1  11
ATOM     11  S1   11 d         -12.188 207.037 113.151  0.00  0.00     0.264 S 
ATOM     12  O1   11 d         -11.530 205.779 112.579  0.00  0.00    -0.200 OA
ATOM     13  O2   11 d         -13.533 207.201 112.439  0.00  0.00    -0.200 OA
BRANCH  11  14
ATOM     14  C7   11 d         -12.485 206.821 114.918  0.00  0.00     0.101 A 
ATOM     15  C8   11 d         -13.287 207.728 115.648  0.00  0.00     0.057 A 
ATOM     16 Cl2   11 d         -14.042 209.159 114.892  0.00  0.00    -0.083 Cl
ATOM     17  C9   11 d         -13.504 207.525 117.020  0.00  0.00     0.025 A 
ATOM     18  C10  11 d         -12.939 206.419 117.671  0.00  0.00     0.002 A 
ATOM     19  C11  11 d         -12.147 205.514 116.952  0.00  0.00     0.002 A 
ATOM     20  C12  11 d         -11.916 205.716 115.583  0.00  0.00     0.027 A 
ENDBRANCH  11  14
ENDBRANCH   1  11
TORSDOF 3
ENDMDL
MODEL 20
REMARK VINA RESULT:      -6.2      5.224      8.148
REMARK  3 active torsions:
REMARK  status: ('A' for Active; 'I' for Inactive)
REMARK    1  A    between atoms: C4_5  and  N1_8 
REMARK    2  A    between atoms: N1_8  and  S1_9 
REMARK    3  A    between atoms: S1_9  and  C7_10 
ROOT
ATOM      1  N1   11 d          -7.977 207.977 114.618  0.00  0.00    -0.281 N 
ATOM      2  H4   11 d          -8.141 207.000 114.537  0.00  0.00     0.179 HD
ENDROOT
BRANCH   1   3
ATOM      3  C4   11 d          -6.806 208.414 115.229  0.00  0.00     0.044 A 
ATOM      4  C3   11 d          -5.574 208.142 114.594  0.00  0.00     0.057 A 
ATOM      5  C2   11 d          -4.358 208.530 115.176  0.00  0.00     0.074 A 
ATOM      6  C1   11 d          -4.356 209.212 116.403  0.00  0.00     0.138 A 
ATOM      7 Cl1   11 d          -2.827 208.144 114.350  0.00  0.00    -0.081 Cl
ATOM      8  C6   11 d          -5.569 209.497 117.044  0.00  0.00     0.046 A 
ATOM      9  F1   11 d          -3.184 209.600 116.985  0.00  0.00    -0.204 F 
ATOM     10  C5   11 d          -6.784 209.099 116.467  0.00  0.00     0.033 A 
ENDBRANCH   1   3
BRANCH   1  11
ATOM     11  S1   11 d          -9.177 208.993 114.002  0.00  0.00     0.264 S 
ATOM     12  O1   11 d          -8.543 210.285 113.481  0.00  0.00    -0.200 OA
ATOM     13  O2   11 d         -10.121 209.386 115.141  0.00  0.00    -0.200 OA
BRANCH  11  14
ATOM     14  C7   11 d         -10.139 208.212 112.690  0.00  0.00     0.101 A 
ATOM     15  C8   11 d         -11.100 207.215 112.973  0.00  0.00     0.057 A 
ATOM     16 Cl2   11 d         -11.419 206.637 114.633  0.00  0.00    -0.083 Cl
ATOM     17  C9   11 d         -11.837 206.634 111.928  0.00  0.00     0.025 A 
ATOM     18  C10  11 d         -11.633 207.046 110.604  0.00  0.00     0.002 A 
ATOM     19  C11  11 d         -10.685 208.037 110.318  0.00  0.00     0.002 A 
ATOM     20  C12  11 d          -9.937 208.614 111.354  0.00  0.00     0.027 A 
ENDBRANCH  11  14
ENDBRANCH   1  11
TORSDOF 3
ENDMDL
