MODEL 1
REMARK VINA RESULT:     -10.1      0.000      0.000
REMARK  2 active torsions:
REMARK  status: ('A' for Active; 'I' for Inactive)
REMARK    1  A    between atoms: C10_13  and  C11_14 
REMARK       I    between atoms: C11_14  and  N3_16 
REMARK    2  A    between atoms: N3_16  and  C12_17 
ROOT
ATOM      1  C1   11 d         -11.893 207.364 111.758  0.00  0.00     0.262 A 
ATOM      2  C2   11 d         -11.153 207.884 112.833  0.00  0.00     0.075 A 
ATOM      3  C3   11 d         -11.803 208.079 114.025  0.00  0.00     0.116 A 
ATOM      4  N1   11 d         -13.113 207.810 114.191  0.00  0.00    -0.227 NA
ATOM      5  C4   11 d         -13.862 207.345 113.146  0.00  0.00     0.110 A 
ATOM      6  N2   11 d         -13.249 207.090 111.914  0.00  0.00    -0.301 N 
ATOM      7  C5   11 d         -13.987 206.604 110.709  0.00  0.00     0.133 C 
ATOM      8  C6   11 d         -15.474 206.961 110.613  0.00  0.00     0.020 C 
ATOM      9  C7   11 d         -16.376 206.036 111.438  0.00  0.00     0.002 C 
ATOM     10  C8   11 d         -15.850 205.734 112.845  0.00  0.00     0.008 C 
ATOM     11  C9   11 d         -15.277 206.968 113.546  0.00  0.00     0.079 C 
ATOM     12  S1   11 d         -10.847 208.606 115.038  0.00  0.00    -0.063 SA
ATOM     13  C10  11 d          -9.552 208.698 114.271  0.00  0.00     0.082 A 
ATOM     14  C18  11 d          -9.793 208.248 112.952  0.00  0.00    -0.021 A 
ATOM     15  C19  11 d          -8.824 208.360 111.802  0.00  0.00     0.051 C 
ATOM     16  O2   11 d         -11.309 207.103 110.674  0.00  0.00    -0.267 OA
ENDROOT
BRANCH  13  17
ATOM     17  C11  11 d          -8.258 209.173 114.864  0.00  0.00     0.263 C 
ATOM     18  O1   11 d          -7.797 210.305 114.490  0.00  0.00    -0.267 OA
ATOM     19  N3   11 d          -7.541 208.381 115.828  0.00  0.00    -0.323 N 
ATOM     20  H11  11 d          -7.972 207.438 116.105  0.00  0.00     0.169 HD
BRANCH  19  21
ATOM     21  C12  11 d          -6.260 208.716 116.494  0.00  0.00     0.035 A 
ATOM     22  C13  11 d          -5.077 208.486 115.755  0.00  0.00     0.029 A 
ATOM     23  C14  11 d          -3.814 208.774 116.295  0.00  0.00     0.002 A 
ATOM     24  C15  11 d          -3.708 209.296 117.588  0.00  0.00     0.000 A 
ATOM     25  C16  11 d          -4.865 209.531 118.341  0.00  0.00     0.002 A 
ATOM     26  C17  11 d          -6.130 209.247 117.802  0.00  0.00     0.029 A 
ENDBRANCH  19  21
ENDBRANCH  13  17
TORSDOF 2
ENDMDL
MODEL 2
REMARK VINA RESULT:     -10.0      1.431      2.406
REMARK  2 active torsions:
REMARK  status: ('A' for Active; 'I' for Inactive)
REMARK    1  A    between atoms: C10_13  and  C11_14 
REMARK       I    between atoms: C11_14  and  N3_16 
REMARK    2  A    between atoms: N3_16  and  C12_17 
ROOT
ATOM      1  C1   11 d         -13.097 207.778 114.208  0.00  0.00     0.262 A 
ATOM      2  C2   11 d         -11.727 208.024 114.023  0.00  0.00     0.075 A 
ATOM      3  C3   11 d         -11.193 207.777 112.784  0.00  0.00     0.116 A 
ATOM      4  N1   11 d         -11.925 207.297 111.759  0.00  0.00    -0.227 NA
ATOM      5  C4   11 d         -13.251 207.010 111.931  0.00  0.00     0.110 A 
ATOM      6  N2   11 d         -13.864 207.274 113.161  0.00  0.00    -0.301 N 
ATOM      7  C5   11 d         -15.298 206.972 113.451  0.00  0.00     0.133 C 
ATOM      8  C6   11 d         -15.945 205.835 112.655  0.00  0.00     0.020 C 
ATOM      9  C7   11 d         -16.401 206.256 111.254  0.00  0.00     0.002 C 
ATOM     10  C8   11 d         -15.385 207.112 110.491  0.00  0.00     0.008 C 
ATOM     11  C9   11 d         -13.947 206.610 110.643  0.00  0.00     0.079 C 
ATOM     12  S1   11 d          -9.745 208.125 112.783  0.00  0.00    -0.063 SA
ATOM     13  C10  11 d          -9.505 208.600 114.193  0.00  0.00     0.082 A 
ATOM     14  C18  11 d         -10.732 208.521 114.894  0.00  0.00    -0.021 A 
ATOM     15  C19  11 d         -10.901 208.712 116.381  0.00  0.00     0.051 C 
ATOM     16  O2   11 d         -13.633 208.065 115.311  0.00  0.00    -0.267 OA
ENDROOT
BRANCH  13  17
ATOM     17  C11  11 d          -8.179 209.081 114.703  0.00  0.00     0.263 C 
ATOM     18  O1   11 d          -7.781 210.246 114.357  0.00  0.00    -0.267 OA
ATOM     19  N3   11 d          -7.363 208.260 115.558  0.00  0.00    -0.323 N 
ATOM     20  H11  11 d          -7.744 207.291 115.816  0.00  0.00     0.169 HD
BRANCH  19  21
ATOM     21  C12  11 d          -6.039 208.599 116.134  0.00  0.00     0.035 A 
ATOM     22  C13  11 d          -6.038 209.302 117.361  0.00  0.00     0.029 A 
ATOM     23  C14  11 d          -4.838 209.666 117.990  0.00  0.00     0.002 A 
ATOM     24  C15  11 d          -3.612 209.337 117.402  0.00  0.00     0.000 A 
ATOM     25  C16  11 d          -3.587 208.643 116.186  0.00  0.00     0.002 A 
ATOM     26  C17  11 d          -4.786 208.275 115.556  0.00  0.00     0.029 A 
ENDBRANCH  19  21
ENDBRANCH  13  17
TORSDOF 2
ENDMDL
MODEL 3
REMARK VINA RESULT:      -9.2      1.403      8.815
REMARK  2 active torsions:
REMARK  status: ('A' for Active; 'I' for Inactive)
REMARK    1  A    between atoms: C10_13  and  C11_14 
REMARK       I    between atoms: C11_14  and  N3_16 
REMARK    2  A    between atoms: N3_16  and  C12_17 
ROOT
ATOM      1  C1   11 d          -7.559 209.063 114.474  0.00  0.00     0.262 A 
ATOM      2  C2   11 d          -8.903 208.730 114.710  0.00  0.00     0.075 A 
ATOM      3  C3   11 d          -9.274 208.435 115.997  0.00  0.00     0.116 A 
ATOM      4  N1   11 d          -8.402 208.436 117.024  0.00  0.00    -0.227 NA
ATOM      5  C4   11 d          -7.080 208.715 116.809  0.00  0.00     0.110 A 
ATOM      6  N2   11 d          -6.645 209.060 115.524  0.00  0.00    -0.301 N 
ATOM      7  C5   11 d          -5.220 209.357 115.187  0.00  0.00     0.133 C 
ATOM      8  C6   11 d          -4.146 208.704 116.064  0.00  0.00     0.020 C 
ATOM      9  C7   11 d          -3.904 209.445 117.383  0.00  0.00     0.002 C 
ATOM     10  C8   11 d          -5.183 209.880 118.105  0.00  0.00     0.008 C 
ATOM     11  C9   11 d          -6.273 208.805 118.091  0.00  0.00     0.079 C 
ATOM     12  S1   11 d         -10.733 208.138 116.043  0.00  0.00    -0.063 SA
ATOM     13  C10  11 d         -11.160 208.292 114.605  0.00  0.00     0.082 A 
ATOM     14  C18  11 d         -10.020 208.652 113.848  0.00  0.00    -0.021 A 
ATOM     15  C19  11 d          -9.956 208.713 112.342  0.00  0.00     0.051 C 
ATOM     16  O2   11 d          -7.202 209.411 113.318  0.00  0.00    -0.267 OA
ENDROOT
BRANCH  13  17
ATOM     17  C11  11 d         -12.568 208.104 114.123  0.00  0.00     0.263 C 
ATOM     18  O1   11 d         -13.471 208.896 114.560  0.00  0.00    -0.267 OA
ATOM     19  N3   11 d         -12.908 207.060 113.193  0.00  0.00    -0.323 N 
ATOM     20  H11  11 d         -12.112 206.423 112.859  0.00  0.00     0.169 HD
BRANCH  19  21
ATOM     21  C12  11 d         -14.247 206.755 112.633  0.00  0.00     0.035 A 
ATOM     22  C13  11 d         -14.443 207.034 111.261  0.00  0.00     0.029 A 
ATOM     23  C14  11 d         -15.672 206.778 110.635  0.00  0.00     0.002 A 
ATOM     24  C15  11 d         -16.733 206.240 111.370  0.00  0.00     0.000 A 
ATOM     25  C16  11 d         -16.564 205.956 112.731  0.00  0.00     0.002 A 
ATOM     26  C17  11 d         -15.334 206.208 113.359  0.00  0.00     0.029 A 
ENDBRANCH  19  21
ENDBRANCH  13  17
TORSDOF 2
ENDMDL
MODEL 4
REMARK VINA RESULT:      -8.8      5.776      8.073
REMARK  2 active torsions:
REMARK  status: ('A' for Active; 'I' for Inactive)
REMARK    1  A    between atoms: C10_13  and  C11_14 
REMARK       I    between atoms: C11_14  and  N3_16 
REMARK    2  A    between atoms: N3_16  and  C12_17 
ROOT
ATOM      1  C1   11 d         -14.765 204.435 118.750  0.00  0.00     0.262 A 
ATOM      2  C2   11 d         -14.034 205.389 118.023  0.00  0.00     0.075 A 
ATOM      3  C3   11 d         -13.175 206.203 118.717  0.00  0.00     0.116 A 
ATOM      4  N1   11 d         -13.026 206.131 120.055  0.00  0.00    -0.227 NA
ATOM      5  C4   11 d         -13.761 205.240 120.786  0.00  0.00     0.110 A 
ATOM      6  N2   11 d         -14.627 204.355 120.133  0.00  0.00    -0.301 N 
ATOM      7  C5   11 d         -15.488 203.364 120.847  0.00  0.00     0.133 C 
ATOM      8  C6   11 d         -15.897 203.704 122.284  0.00  0.00     0.020 C 
ATOM      9  C7   11 d         -14.812 203.385 123.317  0.00  0.00     0.002 C 
ATOM     10  C8   11 d         -13.401 203.817 122.904  0.00  0.00     0.008 C 
ATOM     11  C9   11 d         -13.368 205.201 122.252  0.00  0.00     0.079 C 
ATOM     12  S1   11 d         -12.478 207.119 117.772  0.00  0.00    -0.063 SA
ATOM     13  C10  11 d         -13.054 206.733 116.433  0.00  0.00     0.082 A 
ATOM     14  C18  11 d         -13.981 205.685 116.643  0.00  0.00    -0.021 A 
ATOM     15  C19  11 d         -14.927 205.137 115.605  0.00  0.00     0.051 C 
ATOM     16  O2   11 d         -15.505 203.623 118.135  0.00  0.00    -0.267 OA
ENDROOT
BRANCH  13  17
ATOM     17  C11  11 d         -12.657 207.370 115.134  0.00  0.00     0.263 C 
ATOM     18  O1   11 d         -13.179 208.495 114.825  0.00  0.00    -0.267 OA
ATOM     19  N3   11 d         -11.716 206.738 114.247  0.00  0.00    -0.323 N 
ATOM     20  H11  11 d         -11.310 205.794 114.555  0.00  0.00     0.169 HD
BRANCH  19  21
ATOM     21  C12  11 d         -11.234 207.244 112.939  0.00  0.00     0.035 A 
ATOM     22  C13  11 d         -11.919 206.792 111.789  0.00  0.00     0.029 A 
ATOM     23  C14  11 d         -11.542 207.214 110.505  0.00  0.00     0.002 A 
ATOM     24  C15  11 d         -10.469 208.097 110.345  0.00  0.00     0.000 A 
ATOM     25  C16  11 d          -9.773 208.557 111.470  0.00  0.00     0.002 A 
ATOM     26  C17  11 d         -10.150 208.138 112.756  0.00  0.00     0.029 A 
ENDBRANCH  19  21
ENDBRANCH  13  17
TORSDOF 2
ENDMDL
MODEL 5
REMARK VINA RESULT:      -8.7      1.884      9.102
REMARK  2 active torsions:
REMARK  status: ('A' for Active; 'I' for Inactive)
REMARK    1  A    between atoms: C10_13  and  C11_14 
REMARK       I    between atoms: C11_14  and  N3_16 
REMARK    2  A    between atoms: N3_16  and  C12_17 
ROOT
ATOM      1  C1   11 d          -8.401 208.283 117.249  0.00  0.00     0.262 A 
ATOM      2  C2   11 d          -9.355 208.390 116.223  0.00  0.00     0.075 A 
ATOM      3  C3   11 d          -8.944 208.897 115.016  0.00  0.00     0.116 A 
ATOM      4  N1   11 d          -7.680 209.307 114.791  0.00  0.00    -0.227 NA
ATOM      5  C4   11 d          -6.747 209.252 115.790  0.00  0.00     0.110 A 
ATOM      6  N2   11 d          -7.093 208.710 117.033  0.00  0.00    -0.301 N 
ATOM      7  C5   11 d          -6.152 208.630 118.190  0.00  0.00     0.133 C 
ATOM      8  C6   11 d          -5.026 209.667 118.245  0.00  0.00     0.020 C 
ATOM      9  C7   11 d          -3.831 209.316 117.353  0.00  0.00     0.002 C 
ATOM     10  C8   11 d          -4.213 208.817 115.955  0.00  0.00     0.008 C 
ATOM     11  C9   11 d          -5.351 209.623 115.324  0.00  0.00     0.079 C 
ATOM     12  S1   11 d         -10.086 208.904 114.060  0.00  0.00    -0.063 SA
ATOM     13  C10  11 d         -11.220 208.338 114.876  0.00  0.00     0.082 A 
ATOM     14  C18  11 d         -10.723 208.044 116.168  0.00  0.00    -0.021 A 
ATOM     15  C19  11 d         -11.563 207.648 117.356  0.00  0.00     0.051 C 
ATOM     16  O2   11 d          -8.727 207.753 118.343  0.00  0.00    -0.267 OA
ENDROOT
BRANCH  13  17
ATOM     17  C11  11 d         -12.609 208.127 114.350  0.00  0.00     0.263 C 
ATOM     18  O1   11 d         -13.552 208.853 114.816  0.00  0.00    -0.267 OA
ATOM     19  N3   11 d         -12.887 207.133 113.348  0.00  0.00    -0.323 N 
ATOM     20  H11  11 d         -12.059 206.550 112.993  0.00  0.00     0.169 HD
BRANCH  19  21
ATOM     21  C12  11 d         -14.200 206.812 112.739  0.00  0.00     0.035 A 
ATOM     22  C13  11 d         -14.360 207.121 111.368  0.00  0.00     0.029 A 
ATOM     23  C14  11 d         -15.562 206.854 110.697  0.00  0.00     0.002 A 
ATOM     24  C15  11 d         -16.634 206.274 111.385  0.00  0.00     0.000 A 
ATOM     25  C16  11 d         -16.501 205.960 112.744  0.00  0.00     0.002 A 
ATOM     26  C17  11 d         -15.297 206.224 113.417  0.00  0.00     0.029 A 
ENDBRANCH  19  21
ENDBRANCH  13  17
TORSDOF 2
ENDMDL
MODEL 6
REMARK VINA RESULT:      -8.6      2.561      9.042
REMARK  2 active torsions:
REMARK  status: ('A' for Active; 'I' for Inactive)
REMARK    1  A    between atoms: C10_13  and  C11_14 
REMARK       I    between atoms: C11_14  and  N3_16 
REMARK    2  A    between atoms: N3_16  and  C12_17 
ROOT
ATOM      1  C1   11 d          -8.595 208.382 116.902  0.00  0.00     0.262 A 
ATOM      2  C2   11 d          -9.967 208.165 116.688  0.00  0.00     0.075 A 
ATOM      3  C3   11 d         -10.743 207.850 117.773  0.00  0.00     0.116 A 
ATOM      4  N1   11 d         -10.239 207.726 119.017  0.00  0.00    -0.227 NA
ATOM      5  C4   11 d          -8.900 207.890 119.240  0.00  0.00     0.110 A 
ATOM      6  N2   11 d          -8.060 208.249 118.180  0.00  0.00    -0.301 N 
ATOM      7  C5   11 d          -6.583 208.426 118.321  0.00  0.00     0.133 C 
ATOM      8  C6   11 d          -5.890 207.639 119.437  0.00  0.00     0.020 C 
ATOM      9  C7   11 d          -6.018 208.296 120.815  0.00  0.00     0.002 C 
ATOM     10  C8   11 d          -7.423 208.817 121.137  0.00  0.00     0.008 C 
ATOM     11  C9   11 d          -8.530 207.849 120.712  0.00  0.00     0.079 C 
ATOM     12  S1   11 d         -12.161 207.688 117.346  0.00  0.00    -0.063 SA
ATOM     13  C10  11 d         -12.103 207.943 115.862  0.00  0.00     0.082 A 
ATOM     14  C18  11 d         -10.760 208.229 115.521  0.00  0.00    -0.021 A 
ATOM     15  C19  11 d         -10.223 208.349 114.116  0.00  0.00     0.051 C 
ATOM     16  O2   11 d          -7.869 208.745 115.940  0.00  0.00    -0.267 OA
ENDROOT
BRANCH  13  17
ATOM     17  C11  11 d         -13.299 207.908 114.957  0.00  0.00     0.263 C 
ATOM     18  O1   11 d         -14.155 208.853 115.044  0.00  0.00    -0.267 OA
ATOM     19  N3   11 d         -13.492 206.841 114.011  0.00  0.00    -0.323 N 
ATOM     20  H11  11 d         -12.743 206.072 113.981  0.00  0.00     0.169 HD
BRANCH  19  21
ATOM     21  C12  11 d         -14.617 206.673 113.060  0.00  0.00     0.035 A 
ATOM     22  C13  11 d         -14.419 207.157 111.747  0.00  0.00     0.029 A 
ATOM     23  C14  11 d         -15.421 207.043 110.771  0.00  0.00     0.002 A 
ATOM     24  C15  11 d         -16.644 206.445 111.090  0.00  0.00     0.000 A 
ATOM     25  C16  11 d         -16.865 205.960 112.386  0.00  0.00     0.002 A 
ATOM     26  C17  11 d         -15.863 206.070 113.363  0.00  0.00     0.029 A 
ENDBRANCH  19  21
ENDBRANCH  13  17
TORSDOF 2
ENDMDL
MODEL 7
REMARK VINA RESULT:      -8.6      2.156      2.537
REMARK  2 active torsions:
REMARK  status: ('A' for Active; 'I' for Inactive)
REMARK    1  A    between atoms: C10_13  and  C11_14 
REMARK       I    between atoms: C11_14  and  N3_16 
REMARK    2  A    between atoms: N3_16  and  C12_17 
ROOT
ATOM      1  C1   11 d         -12.278 207.554 113.080  0.00  0.00     0.262 A 
ATOM      2  C2   11 d         -11.973 207.608 114.450  0.00  0.00     0.075 A 
ATOM      3  C3   11 d         -12.959 207.266 115.341  0.00  0.00     0.116 A 
ATOM      4  N1   11 d         -14.197 206.903 114.951  0.00  0.00    -0.227 NA
ATOM      5  C4   11 d         -14.528 206.886 113.625  0.00  0.00     0.110 A 
ATOM      6  N2   11 d         -13.555 207.188 112.664  0.00  0.00    -0.301 N 
ATOM      7  C5   11 d         -13.827 207.219 111.195  0.00  0.00     0.133 C 
ATOM      8  C6   11 d         -15.263 207.527 110.759  0.00  0.00     0.020 C 
ATOM      9  C7   11 d         -16.192 206.310 110.823  0.00  0.00     0.002 C 
ATOM     10  C8   11 d         -16.046 205.472 112.097  0.00  0.00     0.008 C 
ATOM     11  C9   11 d         -15.913 206.324 113.361  0.00  0.00     0.079 C 
ATOM     12  S1   11 d         -12.434 207.360 116.731  0.00  0.00    -0.063 SA
ATOM     13  C10  11 d         -11.009 207.812 116.530  0.00  0.00     0.082 A 
ATOM     14  C18  11 d         -10.785 207.941 115.139  0.00  0.00    -0.021 A 
ATOM     15  C19  11 d          -9.562 208.556 114.506  0.00  0.00     0.051 C 
ATOM     16  O2   11 d         -11.374 207.788 112.236  0.00  0.00    -0.267 OA
ENDROOT
BRANCH  13  17
ATOM     17  C11  11 d         -10.037 208.046 117.649  0.00  0.00     0.263 C 
ATOM     18  O1   11 d         -10.412 208.759 118.641  0.00  0.00    -0.267 OA
ATOM     19  N3   11 d          -8.710 207.490 117.616  0.00  0.00    -0.323 N 
ATOM     20  H11  11 d          -8.447 206.900 116.759  0.00  0.00     0.169 HD
BRANCH  19  21
ATOM     21  C12  11 d          -7.648 207.635 118.640  0.00  0.00     0.035 A 
ATOM     22  C13  11 d          -6.677 208.637 118.413  0.00  0.00     0.029 A 
ATOM     23  C14  11 d          -5.633 208.858 119.324  0.00  0.00     0.002 A 
ATOM     24  C15  11 d          -5.536 208.077 120.481  0.00  0.00     0.000 A 
ATOM     25  C16  11 d          -6.485 207.077 120.726  0.00  0.00     0.002 A 
ATOM     26  C17  11 d          -7.532 206.856 119.818  0.00  0.00     0.029 A 
ENDBRANCH  19  21
ENDBRANCH  13  17
TORSDOF 2
ENDMDL
MODEL 8
REMARK VINA RESULT:      -8.1      6.639      9.972
REMARK  2 active torsions:
REMARK  status: ('A' for Active; 'I' for Inactive)
REMARK    1  A    between atoms: C10_13  and  C11_14 
REMARK       I    between atoms: C11_14  and  N3_16 
REMARK    2  A    between atoms: N3_16  and  C12_17 
ROOT
ATOM      1  C1   11 d         -15.164 203.930 120.188  0.00  0.00     0.262 A 
ATOM      2  C2   11 d         -14.703 204.672 119.087  0.00  0.00     0.075 A 
ATOM      3  C3   11 d         -14.096 205.877 119.336  0.00  0.00     0.116 A 
ATOM      4  N1   11 d         -13.947 206.373 120.580  0.00  0.00    -0.227 NA
ATOM      5  C4   11 d         -14.428 205.687 121.661  0.00  0.00     0.110 A 
ATOM      6  N2   11 d         -15.024 204.434 121.477  0.00  0.00    -0.301 N 
ATOM      7  C5   11 d         -15.600 203.623 122.592  0.00  0.00     0.133 C 
ATOM      8  C6   11 d         -16.099 204.385 123.823  0.00  0.00     0.020 C 
ATOM      9  C7   11 d         -14.978 204.774 124.793  0.00  0.00     0.002 C 
ATOM     10  C8   11 d         -13.727 205.343 124.116  0.00  0.00     0.008 C 
ATOM     11  C9   11 d         -14.053 206.323 122.987  0.00  0.00     0.079 C 
ATOM     12  S1   11 d         -13.655 206.491 118.053  0.00  0.00    -0.063 SA
ATOM     13  C10  11 d         -14.096 205.483 117.021  0.00  0.00     0.082 A 
ATOM     14  C18  11 d         -14.716 204.408 117.700  0.00  0.00    -0.021 A 
ATOM     15  C19  11 d         -15.474 203.283 117.041  0.00  0.00     0.051 C 
ATOM     16  O2   11 d         -15.658 202.787 119.999  0.00  0.00    -0.267 OA
ENDROOT
BRANCH  13  17
ATOM     17  C11  11 d         -13.869 205.638 115.546  0.00  0.00     0.263 C 
ATOM     18  O1   11 d         -12.665 205.647 115.115  0.00  0.00    -0.267 OA
ATOM     19  N3   11 d         -14.969 205.777 114.630  0.00  0.00    -0.323 N 
ATOM     20  H11  11 d         -15.958 205.765 115.046  0.00  0.00     0.169 HD
BRANCH  19  21
ATOM     21  C12  11 d         -14.899 205.938 113.157  0.00  0.00     0.035 A 
ATOM     22  C13  11 d         -15.195 207.221 112.641  0.00  0.00     0.029 A 
ATOM     23  C14  11 d         -15.153 207.477 111.263  0.00  0.00     0.002 A 
ATOM     24  C15  11 d         -14.817 206.454 110.370  0.00  0.00     0.000 A 
ATOM     25  C16  11 d         -14.522 205.175 110.857  0.00  0.00     0.002 A 
ATOM     26  C17  11 d         -14.560 204.916 112.236  0.00  0.00     0.029 A 
ENDBRANCH  19  21
ENDBRANCH  13  17
TORSDOF 2
ENDMDL
MODEL 9
REMARK VINA RESULT:      -7.7      4.671      5.387
REMARK  2 active torsions:
REMARK  status: ('A' for Active; 'I' for Inactive)
REMARK    1  A    between atoms: C10_13  and  C11_14 
REMARK       I    between atoms: C11_14  and  N3_16 
REMARK    2  A    between atoms: N3_16  and  C12_17 
ROOT
ATOM      1  C1   11 d         -12.238 206.941 114.121  0.00  0.00     0.262 A 
ATOM      2  C2   11 d         -12.516 206.546 115.440  0.00  0.00     0.075 A 
ATOM      3  C3   11 d         -13.664 205.830 115.666  0.00  0.00     0.116 A 
ATOM      4  N1   11 d         -14.531 205.514 114.683  0.00  0.00    -0.227 NA
ATOM      5  C4   11 d         -14.300 205.926 113.399  0.00  0.00     0.110 A 
ATOM      6  N2   11 d         -13.128 206.628 113.097  0.00  0.00    -0.301 N 
ATOM      7  C5   11 d         -12.801 207.139 111.732  0.00  0.00     0.133 C 
ATOM      8  C6   11 d         -13.979 207.448 110.803  0.00  0.00     0.020 C 
ATOM      9  C7   11 d         -14.551 206.206 110.112  0.00  0.00     0.002 C 
ATOM     10  C8   11 d         -14.726 204.995 111.035  0.00  0.00     0.008 C 
ATOM     11  C9   11 d         -15.300 205.367 112.404  0.00  0.00     0.079 C 
ATOM     12  S1   11 d         -13.764 205.485 117.112  0.00  0.00    -0.063 SA
ATOM     13  C10  11 d         -12.521 206.105 117.698  0.00  0.00     0.082 A 
ATOM     14  C18  11 d         -11.806 206.726 116.647  0.00  0.00    -0.021 A 
ATOM     15  C19  11 d         -10.611 207.629 116.821  0.00  0.00     0.051 C 
ATOM     16  O2   11 d         -11.157 207.533 113.868  0.00  0.00    -0.267 OA
ENDROOT
BRANCH  13  17
ATOM     17  C11  11 d         -12.148 206.024 119.150  0.00  0.00     0.263 C 
ATOM     18  O1   11 d         -13.047 206.279 120.023  0.00  0.00    -0.267 OA
ATOM     19  N3   11 d         -10.815 205.675 119.562  0.00  0.00    -0.323 N 
ATOM     20  H11  11 d         -10.100 205.473 118.787  0.00  0.00     0.169 HD
BRANCH  19  21
ATOM     21  C12  11 d         -10.303 205.558 120.948  0.00  0.00     0.035 A 
ATOM     22  C13  11 d         -10.928 204.601 121.780  0.00  0.00     0.029 A 
ATOM     23  C14  11 d         -10.515 204.411 123.107  0.00  0.00     0.002 A 
ATOM     24  C15  11 d          -9.469 205.178 123.632  0.00  0.00     0.000 A 
ATOM     25  C16  11 d          -8.836 206.134 122.828  0.00  0.00     0.002 A 
ATOM     26  C17  11 d          -9.245 206.324 121.499  0.00  0.00     0.029 A 
ENDBRANCH  19  21
ENDBRANCH  13  17
TORSDOF 2
ENDMDL
MODEL 10
REMARK VINA RESULT:      -7.5      4.508      8.729
REMARK  2 active torsions:
REMARK  status: ('A' for Active; 'I' for Inactive)
REMARK    1  A    between atoms: C10_13  and  C11_14 
REMARK       I    between atoms: C11_14  and  N3_16 
REMARK    2  A    between atoms: N3_16  and  C12_17 
ROOT
ATOM      1  C1   11 d          -9.853 208.596 115.296  0.00  0.00     0.262 A 
ATOM      2  C2   11 d         -10.434 207.946 116.397  0.00  0.00     0.075 A 
ATOM      3  C3   11 d          -9.639 207.697 117.487  0.00  0.00     0.116 A 
ATOM      4  N1   11 d          -8.334 208.034 117.529  0.00  0.00    -0.227 NA
ATOM      5  C4   11 d          -7.739 208.628 116.450  0.00  0.00     0.110 A 
ATOM      6  N2   11 d          -8.505 208.942 115.322  0.00  0.00    -0.301 N 
ATOM      7  C5   11 d          -7.939 209.568 114.088  0.00  0.00     0.133 C 
ATOM      8  C6   11 d          -6.457 209.314 113.796  0.00  0.00     0.020 C 
ATOM      9  C7   11 d          -5.516 210.225 114.591  0.00  0.00     0.002 C 
ATOM     10  C8   11 d          -5.888 210.379 116.069  0.00  0.00     0.008 C 
ATOM     11  C9   11 d          -6.309 209.059 116.720  0.00  0.00     0.079 C 
ATOM     12  S1   11 d         -10.441 207.033 118.552  0.00  0.00    -0.063 SA
ATOM     13  C10  11 d         -11.810 206.920 117.930  0.00  0.00     0.082 A 
ATOM     14  C18  11 d         -11.749 207.489 116.636  0.00  0.00    -0.021 A 
ATOM     15  C19  11 d         -12.839 207.409 115.596  0.00  0.00     0.051 C 
ATOM     16  O2   11 d         -10.573 208.905 114.311  0.00  0.00    -0.267 OA
ENDROOT
BRANCH  13  17
ATOM     17  C11  11 d         -12.999 206.319 118.621  0.00  0.00     0.263 C 
ATOM     18  O1   11 d         -13.610 207.020 119.498  0.00  0.00    -0.267 OA
ATOM     19  N3   11 d         -13.447 204.987 118.316  0.00  0.00    -0.323 N 
ATOM     20  H11  11 d         -12.896 204.442 117.573  0.00  0.00     0.169 HD
BRANCH  19  21
ATOM     21  C12  11 d         -14.597 204.265 118.913  0.00  0.00     0.035 A 
ATOM     22  C13  11 d         -14.827 204.465 120.294  0.00  0.00     0.029 A 
ATOM     23  C14  11 d         -15.891 203.831 120.953  0.00  0.00     0.002 A 
ATOM     24  C15  11 d         -16.746 202.980 120.245  0.00  0.00     0.000 A 
ATOM     25  C16  11 d         -16.537 202.765 118.877  0.00  0.00     0.002 A 
ATOM     26  C17  11 d         -15.475 203.400 118.214  0.00  0.00     0.029 A 
ENDBRANCH  19  21
ENDBRANCH  13  17
TORSDOF 2
ENDMDL
MODEL 11
REMARK VINA RESULT:      -7.2      2.480      3.261
REMARK  2 active torsions:
REMARK  status: ('A' for Active; 'I' for Inactive)
REMARK    1  A    between atoms: C10_13  and  C11_14 
REMARK       I    between atoms: C11_14  and  N3_16 
REMARK    2  A    between atoms: N3_16  and  C12_17 
ROOT
ATOM      1  C1   11 d         -11.342 207.959 114.600  0.00  0.00     0.262 A 
ATOM      2  C2   11 d         -10.468 208.000 115.699  0.00  0.00     0.075 A 
ATOM      3  C3   11 d         -10.901 207.459 116.883  0.00  0.00     0.116 A 
ATOM      4  N1   11 d         -12.125 206.914 117.030  0.00  0.00    -0.227 NA
ATOM      5  C4   11 d         -13.006 206.903 115.984  0.00  0.00     0.110 A 
ATOM      6  N2   11 d         -12.612 207.406 114.739  0.00  0.00    -0.301 N 
ATOM      7  C5   11 d         -13.511 207.459 113.548  0.00  0.00     0.133 C 
ATOM      8  C6   11 d         -15.018 207.544 113.815  0.00  0.00     0.020 C 
ATOM      9  C7   11 d         -15.656 206.189 114.135  0.00  0.00     0.002 C 
ATOM     10  C8   11 d         -14.851 205.328 115.115  0.00  0.00     0.008 C 
ATOM     11  C9   11 d         -14.279 206.132 116.285  0.00  0.00     0.079 C 
ATOM     12  S1   11 d          -9.828 207.575 117.909  0.00  0.00    -0.063 SA
ATOM     13  C10  11 d          -8.713 208.265 117.164  0.00  0.00     0.082 A 
ATOM     14  C18  11 d          -9.152 208.494 115.838  0.00  0.00    -0.021 A 
ATOM     15  C19  11 d          -8.429 209.332 114.813  0.00  0.00     0.051 C 
ATOM     16  O2   11 d         -10.948 208.379 113.481  0.00  0.00    -0.267 OA
ENDROOT
BRANCH  13  17
ATOM     17  C11  11 d          -7.383 208.606 117.770  0.00  0.00     0.263 C 
ATOM     18  O1   11 d          -6.337 208.055 117.286  0.00  0.00    -0.267 OA
ATOM     19  N3   11 d          -7.276 209.525 118.871  0.00  0.00    -0.323 N 
ATOM     20  H11  11 d          -8.187 209.957 119.240  0.00  0.00     0.169 HD
BRANCH  19  21
ATOM     21  C12  11 d          -6.039 209.954 119.568  0.00  0.00     0.035 A 
ATOM     22  C13  11 d          -5.674 211.314 119.442  0.00  0.00     0.029 A 
ATOM     23  C14  11 d          -4.524 211.819 120.066  0.00  0.00     0.002 A 
ATOM     24  C15  11 d          -3.712 210.973 120.828  0.00  0.00     0.000 A 
ATOM     25  C16  11 d          -4.051 209.621 120.966  0.00  0.00     0.002 A 
ATOM     26  C17  11 d          -5.203 209.114 120.346  0.00  0.00     0.029 A 
ENDBRANCH  19  21
ENDBRANCH  13  17
TORSDOF 2
ENDMDL
MODEL 12
REMARK VINA RESULT:      -7.2      7.576     10.181
REMARK  2 active torsions:
REMARK  status: ('A' for Active; 'I' for Inactive)
REMARK    1  A    between atoms: C10_13  and  C11_14 
REMARK       I    between atoms: C11_14  and  N3_16 
REMARK    2  A    between atoms: N3_16  and  C12_17 
ROOT
ATOM      1  C1   11 d         -15.508 204.106 121.414  0.00  0.00     0.262 A 
ATOM      2  C2   11 d         -14.805 204.707 120.356  0.00  0.00     0.075 A 
ATOM      3  C3   11 d         -14.083 205.841 120.629  0.00  0.00     0.116 A 
ATOM      4  N1   11 d         -14.040 206.399 121.856  0.00  0.00    -0.227 NA
ATOM      5  C4   11 d         -14.751 205.853 122.889  0.00  0.00     0.110 A 
ATOM      6  N2   11 d         -15.478 204.675 122.684  0.00  0.00    -0.301 N 
ATOM      7  C5   11 d         -16.304 204.020 123.742  0.00  0.00     0.133 C 
ATOM      8  C6   11 d         -16.860 204.921 124.850  0.00  0.00     0.020 C 
ATOM      9  C7   11 d         -15.840 205.232 125.950  0.00  0.00     0.002 C 
ATOM     10  C8   11 d         -14.444 205.592 125.433  0.00  0.00     0.008 C 
ATOM     11  C9   11 d         -14.479 206.526 124.221  0.00  0.00     0.079 C 
ATOM     12  S1   11 d         -13.394 206.306 119.394  0.00  0.00    -0.063 SA
ATOM     13  C10  11 d         -13.820 205.294 118.361  0.00  0.00     0.082 A 
ATOM     14  C18  11 d         -14.665 204.353 118.996  0.00  0.00    -0.021 A 
ATOM     15  C19  11 d         -15.469 203.289 118.292  0.00  0.00     0.051 C 
ATOM     16  O2   11 d         -16.119 203.024 121.213  0.00  0.00    -0.267 OA
ENDROOT
BRANCH  13  17
ATOM     17  C11  11 d         -13.375 205.318 116.928  0.00  0.00     0.263 C 
ATOM     18  O1   11 d         -12.320 204.670 116.609  0.00  0.00    -0.267 OA
ATOM     19  N3   11 d         -14.106 206.051 115.929  0.00  0.00    -0.323 N 
ATOM     20  H11  11 d         -14.983 206.578 116.253  0.00  0.00     0.169 HD
BRANCH  19  21
ATOM     21  C12  11 d         -13.789 206.166 114.486  0.00  0.00     0.035 A 
ATOM     22  C13  11 d         -14.559 205.380 113.598  0.00  0.00     0.029 A 
ATOM     23  C14  11 d         -14.340 205.420 112.213  0.00  0.00     0.002 A 
ATOM     24  C15  11 d         -13.341 206.246 111.686  0.00  0.00     0.000 A 
ATOM     25  C16  11 d         -12.564 207.033 112.545  0.00  0.00     0.002 A 
ATOM     26  C17  11 d         -12.783 206.997 113.931  0.00  0.00     0.029 A 
ENDBRANCH  19  21
ENDBRANCH  13  17
TORSDOF 2
ENDMDL
