MODEL 1
REMARK VINA RESULT:      -6.9      0.000      0.000
REMARK  0 active torsions:
REMARK  status: ('A' for Active; 'I' for Inactive)
ROOT
ATOM      1  C1   11 d          13.511  43.397  26.158  0.00  0.00     0.136 A 
ATOM      2  N1   11 d          12.303  43.968  26.444  0.00  0.00    -0.341 N 
ATOM      3  C2   11 d          11.990  44.781  25.417  0.00  0.00     0.062 A 
ATOM      4  C3   11 d          13.018  44.720  24.503  0.00  0.00     0.086 A 
ATOM      5  C4   11 d          13.000  45.475  23.326  0.00  0.00     0.040 A 
ATOM      6  C5   11 d          11.897  46.332  23.096  0.00  0.00    -0.060 A 
ATOM      7  C6   11 d          10.817  46.350  24.017  0.00  0.00     0.009 A 
ATOM      8  C7   11 d          10.863  45.585  25.199  0.00  0.00     0.032 A 
ATOM      9  C8   11 d          11.796  47.099  21.807  0.00  0.00     0.048 C 
ATOM     10  N2   11 d          13.947  43.857  24.957  0.00  0.00    -0.231 NA
ATOM     11  C9   11 d          14.337  42.413  26.984  0.00  0.00     0.255 C 
ATOM     12  N3   11 d          13.655  41.117  27.320  0.00  0.00    -0.064 N 
ATOM     13  C10  11 d          13.414  41.113  28.795  0.00  0.00     0.233 C 
ATOM     14  C11  11 d          13.751  42.508  29.309  0.00  0.00     0.030 C 
ATOM     15  C12  11 d          14.788  43.004  28.320  0.00  0.00     0.042 C 
ATOM     16  H1   11 d          11.704  43.844  27.298  0.00  0.00     0.167 HD
ATOM     17  H9   11 d          12.736  40.976  26.783  0.00  0.00     0.278 HD
ATOM     18  H10  11 d          14.291  40.286  27.067  0.00  0.00     0.278 HD
ENDROOT
TORSDOF 0
ENDMDL
MODEL 2
REMARK VINA RESULT:      -6.9      1.243      1.588
REMARK  0 active torsions:
REMARK  status: ('A' for Active; 'I' for Inactive)
ROOT
ATOM      1  C1   11 d          13.922  42.681  26.220  0.00  0.00     0.136 A 
ATOM      2  N1   11 d          13.045  43.728  26.176  0.00  0.00    -0.341 N 
ATOM      3  C2   11 d          13.132  44.274  24.948  0.00  0.00     0.062 A 
ATOM      4  C3   11 d          14.077  43.568  24.239  0.00  0.00     0.086 A 
ATOM      5  C4   11 d          14.414  43.907  22.925  0.00  0.00     0.040 A 
ATOM      6  C5   11 d          13.770  45.019  22.333  0.00  0.00    -0.060 A 
ATOM      7  C6   11 d          12.759  45.710  23.052  0.00  0.00     0.009 A 
ATOM      8  C7   11 d          12.443  45.353  24.377  0.00  0.00     0.032 A 
ATOM      9  C8   11 d          14.040  45.369  20.896  0.00  0.00     0.048 C 
ATOM     10  N2   11 d          14.552  42.579  25.022  0.00  0.00    -0.231 NA
ATOM     11  C9   11 d          14.239  41.731  27.372  0.00  0.00     0.255 C 
ATOM     12  N3   11 d          13.073  40.948  27.908  0.00  0.00    -0.064 N 
ATOM     13  C10  11 d          12.797  41.453  29.287  0.00  0.00     0.233 C 
ATOM     14  C11  11 d          13.658  42.695  29.492  0.00  0.00     0.030 C 
ATOM     15  C12  11 d          14.843  42.453  28.577  0.00  0.00     0.042 C 
ATOM     16  H1   11 d          12.417  44.090  26.937  0.00  0.00     0.167 HD
ATOM     17  H9   11 d          12.199  41.027  27.290  0.00  0.00     0.278 HD
ATOM     18  H10  11 d          13.321  39.902  27.960  0.00  0.00     0.278 HD
ENDROOT
TORSDOF 0
ENDMDL
MODEL 3
REMARK VINA RESULT:      -6.8      2.266      3.042
REMARK  0 active torsions:
REMARK  status: ('A' for Active; 'I' for Inactive)
ROOT
ATOM      1  C1   11 d          13.656  42.677  26.646  0.00  0.00     0.136 A 
ATOM      2  N1   11 d          14.976  42.933  26.404  0.00  0.00    -0.341 N 
ATOM      3  C2   11 d          15.069  43.418  25.152  0.00  0.00     0.062 A 
ATOM      4  C3   11 d          13.801  43.448  24.616  0.00  0.00     0.086 A 
ATOM      5  C4   11 d          13.565  43.886  23.309  0.00  0.00     0.040 A 
ATOM      6  C5   11 d          14.674  44.289  22.527  0.00  0.00    -0.060 A 
ATOM      7  C6   11 d          15.971  44.305  23.103  0.00  0.00     0.009 A 
ATOM      8  C7   11 d          16.183  43.852  24.420  0.00  0.00     0.032 A 
ATOM      9  C8   11 d          14.459  44.845  21.147  0.00  0.00     0.048 C 
ATOM     10  N2   11 d          12.931  43.002  25.544  0.00  0.00    -0.231 NA
ATOM     11  C9   11 d          12.994  42.103  27.896  0.00  0.00     0.255 C 
ATOM     12  N3   11 d          13.210  42.884  29.161  0.00  0.00    -0.064 N 
ATOM     13  C10  11 d          14.072  42.051  30.053  0.00  0.00     0.233 C 
ATOM     14  C11  11 d          14.557  40.864  29.229  0.00  0.00     0.030 C 
ATOM     15  C12  11 d          13.457  40.679  28.203  0.00  0.00     0.042 C 
ATOM     16  H1   11 d          15.801  42.777  27.036  0.00  0.00     0.167 HD
ATOM     17  H9   11 d          13.655  43.845  28.988  0.00  0.00     0.278 HD
ATOM     18  H10  11 d          12.269  43.064  29.652  0.00  0.00     0.278 HD
ENDROOT
TORSDOF 0
ENDMDL
MODEL 4
REMARK VINA RESULT:      -6.7      3.219      5.017
REMARK  0 active torsions:
REMARK  status: ('A' for Active; 'I' for Inactive)
ROOT
ATOM      1  C1   11 d           9.894  45.852  26.054  0.00  0.00     0.136 A 
ATOM      2  N1   11 d           9.794  46.601  24.916  0.00  0.00    -0.341 N 
ATOM      3  C2   11 d          10.842  46.283  24.132  0.00  0.00     0.062 A 
ATOM      4  C3   11 d          11.597  45.344  24.799  0.00  0.00     0.086 A 
ATOM      5  C4   11 d          12.774  44.825  24.250  0.00  0.00     0.040 A 
ATOM      6  C5   11 d          13.193  45.303  22.986  0.00  0.00    -0.060 A 
ATOM      7  C6   11 d          12.381  46.232  22.282  0.00  0.00     0.009 A 
ATOM      8  C7   11 d          11.203  46.745  22.859  0.00  0.00     0.032 A 
ATOM      9  C8   11 d          14.405  44.713  22.322  0.00  0.00     0.048 C 
ATOM     10  N2   11 d          11.003  45.071  25.977  0.00  0.00    -0.231 NA
ATOM     11  C9   11 d           8.985  45.827  27.280  0.00  0.00     0.255 C 
ATOM     12  N3   11 d           7.548  45.473  27.016  0.00  0.00    -0.064 N 
ATOM     13  C10  11 d           6.736  46.701  27.272  0.00  0.00     0.233 C 
ATOM     14  C11  11 d           7.714  47.853  27.474  0.00  0.00     0.030 C 
ATOM     15  C12  11 d           8.954  47.168  28.014  0.00  0.00     0.042 C 
ATOM     16  H1   11 d           9.068  47.317  24.664  0.00  0.00     0.167 HD
ATOM     17  H9   11 d           7.384  45.108  26.021  0.00  0.00     0.278 HD
ATOM     18  H10  11 d           7.228  44.695  27.688  0.00  0.00     0.278 HD
ENDROOT
TORSDOF 0
ENDMDL
MODEL 5
REMARK VINA RESULT:      -6.5      1.264      2.085
REMARK  0 active torsions:
REMARK  status: ('A' for Active; 'I' for Inactive)
ROOT
ATOM      1  C1   11 d          13.233  43.685  26.844  0.00  0.00     0.136 A 
ATOM      2  N1   11 d          13.814  43.159  25.725  0.00  0.00    -0.341 N 
ATOM      3  C2   11 d          13.502  43.965  24.693  0.00  0.00     0.062 A 
ATOM      4  C3   11 d          12.713  44.984  25.177  0.00  0.00     0.086 A 
ATOM      5  C4   11 d          12.205  45.981  24.339  0.00  0.00     0.040 A 
ATOM      6  C5   11 d          12.504  45.913  22.957  0.00  0.00    -0.060 A 
ATOM      7  C6   11 d          13.362  44.889  22.474  0.00  0.00     0.009 A 
ATOM      8  C7   11 d          13.855  43.893  23.338  0.00  0.00     0.032 A 
ATOM      9  C8   11 d          12.049  47.008  22.034  0.00  0.00     0.048 C 
ATOM     10  N2   11 d          12.560  44.815  26.505  0.00  0.00    -0.231 NA
ATOM     11  C9   11 d          13.250  43.166  28.280  0.00  0.00     0.255 C 
ATOM     12  N3   11 d          14.611  43.014  28.898  0.00  0.00    -0.064 N 
ATOM     13  C10  11 d          14.854  41.551  29.078  0.00  0.00     0.233 C 
ATOM     14  C11  11 d          13.728  40.816  28.360  0.00  0.00     0.030 C 
ATOM     15  C12  11 d          12.576  41.800  28.417  0.00  0.00     0.042 C 
ATOM     16  H1   11 d          14.387  42.283  25.634  0.00  0.00     0.167 HD
ATOM     17  H9   11 d          15.390  43.461  28.310  0.00  0.00     0.278 HD
ATOM     18  H10  11 d          14.637  43.495  29.861  0.00  0.00     0.278 HD
ENDROOT
TORSDOF 0
ENDMDL
MODEL 6
REMARK VINA RESULT:      -6.3      2.452      2.914
REMARK  0 active torsions:
REMARK  status: ('A' for Active; 'I' for Inactive)
ROOT
ATOM      1  C1   11 d          14.728  41.857  27.280  0.00  0.00     0.136 A 
ATOM      2  N1   11 d          13.570  41.849  26.557  0.00  0.00    -0.341 N 
ATOM      3  C2   11 d          13.803  42.524  25.415  0.00  0.00     0.062 A 
ATOM      4  C3   11 d          15.108  42.961  25.444  0.00  0.00     0.086 A 
ATOM      5  C4   11 d          15.652  43.717  24.401  0.00  0.00     0.040 A 
ATOM      6  C5   11 d          14.819  44.047  23.306  0.00  0.00    -0.060 A 
ATOM      7  C6   11 d          13.490  43.549  23.259  0.00  0.00     0.009 A 
ATOM      8  C7   11 d          12.963  42.794  24.326  0.00  0.00     0.032 A 
ATOM      9  C8   11 d          15.384  44.786  22.126  0.00  0.00     0.048 C 
ATOM     10  N2   11 d          15.679  42.537  26.588  0.00  0.00    -0.231 NA
ATOM     11  C9   11 d          15.018  41.255  28.653  0.00  0.00     0.255 C 
ATOM     12  N3   11 d          14.800  39.773  28.770  0.00  0.00    -0.064 N 
ATOM     13  C10  11 d          13.626  39.568  29.672  0.00  0.00     0.233 C 
ATOM     14  C11  11 d          13.002  40.937  29.916  0.00  0.00     0.030 C 
ATOM     15  C12  11 d          14.174  41.888  29.759  0.00  0.00     0.042 C 
ATOM     16  H1   11 d          12.641  41.427  26.810  0.00  0.00     0.167 HD
ATOM     17  H9   11 d          14.640  39.297  27.822  0.00  0.00     0.278 HD
ATOM     18  H10  11 d          15.664  39.304  29.208  0.00  0.00     0.278 HD
ENDROOT
TORSDOF 0
ENDMDL
MODEL 7
REMARK VINA RESULT:      -6.3      2.303      5.901
REMARK  0 active torsions:
REMARK  status: ('A' for Active; 'I' for Inactive)
ROOT
ATOM      1  C1   11 d          14.299  44.172  24.858  0.00  0.00     0.136 A 
ATOM      2  N1   11 d          14.486  42.820  24.915  0.00  0.00    -0.341 N 
ATOM      3  C2   11 d          14.265  42.436  26.187  0.00  0.00     0.062 A 
ATOM      4  C3   11 d          13.954  43.561  26.918  0.00  0.00     0.086 A 
ATOM      5  C4   11 d          13.690  43.495  28.289  0.00  0.00     0.040 A 
ATOM      6  C5   11 d          13.768  42.235  28.928  0.00  0.00    -0.060 A 
ATOM      7  C6   11 d          14.037  41.072  28.158  0.00  0.00     0.009 A 
ATOM      8  C7   11 d          14.307  41.166  26.778  0.00  0.00     0.032 A 
ATOM      9  C8   11 d          13.411  42.104  30.382  0.00  0.00     0.048 C 
ATOM     10  N2   11 d          13.963  44.626  26.093  0.00  0.00    -0.231 NA
ATOM     11  C9   11 d          14.436  45.120  23.669  0.00  0.00     0.255 C 
ATOM     12  N3   11 d          13.553  44.815  22.492  0.00  0.00    -0.064 N 
ATOM     13  C10  11 d          14.442  44.366  21.377  0.00  0.00     0.233 C 
ATOM     14  C11  11 d          15.839  44.188  21.960  0.00  0.00     0.030 C 
ATOM     15  C12  11 d          15.862  45.166  23.119  0.00  0.00     0.042 C 
ATOM     16  H1   11 d          14.770  42.164  24.145  0.00  0.00     0.167 HD
ATOM     17  H9   11 d          12.809  44.073  22.708  0.00  0.00     0.278 HD
ATOM     18  H10  11 d          13.026  45.702  22.184  0.00  0.00     0.278 HD
ENDROOT
TORSDOF 0
ENDMDL
MODEL 8
REMARK VINA RESULT:      -6.1      2.148      4.234
REMARK  0 active torsions:
REMARK  status: ('A' for Active; 'I' for Inactive)
ROOT
ATOM      1  C1   11 d          13.921  40.941  28.882  0.00  0.00     0.136 A 
ATOM      2  N1   11 d          14.998  41.168  28.073  0.00  0.00    -0.341 N 
ATOM      3  C2   11 d          14.629  42.085  27.159  0.00  0.00     0.062 A 
ATOM      4  C3   11 d          13.314  42.412  27.400  0.00  0.00     0.086 A 
ATOM      5  C4   11 d          12.628  43.332  26.600  0.00  0.00     0.040 A 
ATOM      6  C5   11 d          13.315  43.916  25.509  0.00  0.00    -0.060 A 
ATOM      7  C6   11 d          14.687  43.613  25.299  0.00  0.00     0.009 A 
ATOM      8  C7   11 d          15.353  42.677  26.116  0.00  0.00     0.032 A 
ATOM      9  C8   11 d          12.645  44.970  24.674  0.00  0.00     0.048 C 
ATOM     10  N2   11 d          12.885  41.715  28.470  0.00  0.00    -0.231 NA
ATOM     11  C9   11 d          13.783  39.987  30.066  0.00  0.00     0.255 C 
ATOM     12  N3   11 d          14.750  40.208  31.195  0.00  0.00    -0.064 N 
ATOM     13  C10  11 d          15.676  39.035  31.221  0.00  0.00     0.233 C 
ATOM     14  C11  11 d          15.401  38.218  29.964  0.00  0.00     0.030 C 
ATOM     15  C12  11 d          13.947  38.522  29.660  0.00  0.00     0.042 C 
ATOM     16  H1   11 d          15.949  40.720  28.105  0.00  0.00     0.167 HD
ATOM     17  H9   11 d          15.299  41.126  31.100  0.00  0.00     0.278 HD
ATOM     18  H10  11 d          14.223  40.259  32.131  0.00  0.00     0.278 HD
ENDROOT
TORSDOF 0
ENDMDL
MODEL 9
REMARK VINA RESULT:      -6.1      1.963      5.690
REMARK  0 active torsions:
REMARK  status: ('A' for Active; 'I' for Inactive)
ROOT
ATOM      1  C1   11 d          13.442  43.638  25.267  0.00  0.00     0.136 A 
ATOM      2  N1   11 d          14.504  43.379  26.086  0.00  0.00    -0.341 N 
ATOM      3  C2   11 d          14.008  42.998  27.279  0.00  0.00     0.062 A 
ATOM      4  C3   11 d          12.635  43.037  27.195  0.00  0.00     0.086 A 
ATOM      5  C4   11 d          11.823  42.714  28.288  0.00  0.00     0.040 A 
ATOM      6  C5   11 d          12.449  42.358  29.506  0.00  0.00    -0.060 A 
ATOM      7  C6   11 d          13.865  42.270  29.569  0.00  0.00     0.009 A 
ATOM      8  C7   11 d          14.660  42.607  28.456  0.00  0.00     0.032 A 
ATOM      9  C8   11 d          11.618  41.923  30.680  0.00  0.00     0.048 C 
ATOM     10  N2   11 d          12.289  43.419  25.950  0.00  0.00    -0.231 NA
ATOM     11  C9   11 d          13.431  44.117  23.817  0.00  0.00     0.255 C 
ATOM     12  N3   11 d          14.142  43.229  22.835  0.00  0.00    -0.064 N 
ATOM     13  C10  11 d          15.353  43.968  22.365  0.00  0.00     0.233 C 
ATOM     14  C11  11 d          15.487  45.211  23.238  0.00  0.00     0.030 C 
ATOM     15  C12  11 d          14.058  45.502  23.654  0.00  0.00     0.042 C 
ATOM     16  H1   11 d          15.530  43.466  25.878  0.00  0.00     0.167 HD
ATOM     17  H9   11 d          14.413  42.278  23.252  0.00  0.00     0.278 HD
ATOM     18  H10  11 d          13.506  43.026  21.990  0.00  0.00     0.278 HD
ENDROOT
TORSDOF 0
ENDMDL
MODEL 10
REMARK VINA RESULT:      -6.0      2.327      5.357
REMARK  0 active torsions:
REMARK  status: ('A' for Active; 'I' for Inactive)
ROOT
ATOM      1  C1   11 d          14.631  43.438  25.193  0.00  0.00     0.136 A 
ATOM      2  N1   11 d          13.804  44.447  25.598  0.00  0.00    -0.341 N 
ATOM      3  C2   11 d          13.168  44.025  26.707  0.00  0.00     0.062 A 
ATOM      4  C3   11 d          13.597  42.744  26.976  0.00  0.00     0.086 A 
ATOM      5  C4   11 d          13.101  42.017  28.063  0.00  0.00     0.040 A 
ATOM      6  C5   11 d          12.120  42.623  28.884  0.00  0.00    -0.060 A 
ATOM      7  C6   11 d          11.722  43.962  28.631  0.00  0.00     0.009 A 
ATOM      8  C7   11 d          12.232  44.671  27.526  0.00  0.00     0.032 A 
ATOM      9  C8   11 d          11.620  41.911  30.110  0.00  0.00     0.048 C 
ATOM     10  N2   11 d          14.508  42.391  26.048  0.00  0.00    -0.231 NA
ATOM     11  C9   11 d          15.566  43.377  23.987  0.00  0.00     0.255 C 
ATOM     12  N3   11 d          16.623  44.444  23.930  0.00  0.00    -0.064 N 
ATOM     13  C10  11 d          16.288  45.337  22.779  0.00  0.00     0.233 C 
ATOM     14  C11  11 d          14.905  44.933  22.283  0.00  0.00     0.030 C 
ATOM     15  C12  11 d          14.814  43.466  22.658  0.00  0.00     0.042 C 
ATOM     16  H1   11 d          13.644  45.384  25.151  0.00  0.00     0.167 HD
ATOM     17  H9   11 d          16.697  45.007  24.840  0.00  0.00     0.278 HD
ATOM     18  H10  11 d          17.589  44.001  23.761  0.00  0.00     0.278 HD
ENDROOT
TORSDOF 0
ENDMDL
