MODEL 1
REMARK VINA RESULT:      -9.5      0.000      0.000
REMARK  1 active torsions:
REMARK  status: ('A' for Active; 'I' for Inactive)
REMARK    1  A    between atoms: C1_1  and  C2_2 
REMARK       I    between atoms: C1_1  and  N1_12 
ROOT
ATOM      1  C1   11 d         -12.159 207.351 112.296  0.00  0.00     0.235 C 
ATOM      2  N1   11 d         -10.803 207.828 112.156  0.00  0.00    -0.287 N 
ATOM      3  C12  11 d         -10.152 208.070 110.922  0.00  0.00     0.227 C 
ATOM      4  O1   11 d         -10.703 207.930 109.775  0.00  0.00    -0.273 OA
ATOM      5  C13  11 d          -8.770 208.588 111.085  0.00  0.00     0.114 C 
ATOM      6  C14  11 d          -8.829 209.100 112.532  0.00  0.00     0.046 C 
ATOM      7  C15  11 d          -7.535 209.252 113.317  0.00  0.00    -0.052 A 
ATOM      8  C16  11 d          -7.575 210.000 114.516  0.00  0.00     0.007 A 
ATOM      9  C17  11 d          -6.414 210.206 115.274  0.00  0.00     0.001 A 
ATOM     10  C18  11 d          -5.189 209.689 114.835  0.00  0.00     0.000 A 
ATOM     11  C19  11 d          -5.124 208.972 113.634  0.00  0.00     0.001 A 
ATOM     12  C20  11 d          -6.285 208.762 112.873  0.00  0.00     0.007 A 
ATOM     13  C21  11 d          -9.822 208.158 113.223  0.00  0.00     0.144 C 
ATOM     14  O2   11 d         -12.813 207.117 111.216  0.00  0.00    -0.272 OA
ENDROOT
BRANCH   1  15
ATOM     15  C2   11 d         -12.880 207.069 113.637  0.00  0.00     0.042 C 
ATOM     16  C3   11 d         -14.367 206.637 113.377  0.00  0.00     0.024 C 
ATOM     17  C4   11 d         -15.139 206.404 114.697  0.00  0.00    -0.013 C 
ATOM     18  C5   11 d         -15.141 207.710 115.524  0.00  0.00     0.009 C 
ATOM     19  C11  11 d         -14.447 205.282 115.500  0.00  0.00     0.009 C 
ATOM     20  C6   11 d         -13.685 208.129 115.824  0.00  0.00    -0.013 C 
ATOM     21  C7   11 d         -12.935 208.371 114.491  0.00  0.00     0.024 C 
ATOM     22  C8   11 d         -12.980 207.008 116.622  0.00  0.00     0.009 C 
ATOM     23  C9   11 d         -12.990 205.696 115.800  0.00  0.00    -0.013 C 
ATOM     24  C10  11 d         -12.230 205.919 114.471  0.00  0.00     0.024 C 
ENDBRANCH   1  15
TORSDOF 1
ENDMDL
MODEL 2
REMARK VINA RESULT:      -9.3      0.386      1.607
REMARK  1 active torsions:
REMARK  status: ('A' for Active; 'I' for Inactive)
REMARK    1  A    between atoms: C1_1  and  C2_2 
REMARK       I    between atoms: C1_1  and  N1_12 
ROOT
ATOM      1  C1   11 d         -11.997 207.354 112.526  0.00  0.00     0.235 C 
ATOM      2  N1   11 d         -10.654 207.854 112.350  0.00  0.00    -0.287 N 
ATOM      3  C12  11 d         -10.047 208.130 111.100  0.00  0.00     0.227 C 
ATOM      4  O1   11 d         -10.635 208.004 109.969  0.00  0.00    -0.273 OA
ATOM      5  C13  11 d          -8.669 208.665 111.227  0.00  0.00     0.114 C 
ATOM      6  C14  11 d          -8.686 209.147 112.686  0.00  0.00     0.046 C 
ATOM      7  C15  11 d          -7.369 209.303 113.430  0.00  0.00    -0.052 A 
ATOM      8  C16  11 d          -7.379 210.026 114.644  0.00  0.00     0.007 A 
ATOM      9  C17  11 d          -6.196 210.234 115.368  0.00  0.00     0.001 A 
ATOM     10  C18  11 d          -4.979 209.744 114.878  0.00  0.00     0.000 A 
ATOM     11  C19  11 d          -4.944 209.052 113.660  0.00  0.00     0.001 A 
ATOM     12  C20  11 d          -6.127 208.839 112.934  0.00  0.00     0.007 A 
ATOM     13  C21  11 d          -9.642 208.176 113.390  0.00  0.00     0.144 C 
ATOM     14  O2   11 d         -12.683 207.132 111.463  0.00  0.00    -0.272 OA
ENDROOT
BRANCH   1  15
ATOM     15  C2   11 d         -12.669 207.035 113.884  0.00  0.00     0.042 C 
ATOM     16  C3   11 d         -12.610 208.287 114.830  0.00  0.00     0.024 C 
ATOM     17  C4   11 d         -13.219 207.988 116.219  0.00  0.00    -0.013 C 
ATOM     18  C5   11 d         -12.436 206.831 116.882  0.00  0.00     0.009 C 
ATOM     19  C11  11 d         -14.699 207.584 116.051  0.00  0.00     0.009 C 
ATOM     20  C6   11 d         -12.517 205.578 115.983  0.00  0.00    -0.013 C 
ATOM     21  C7   11 d         -11.890 205.893 114.603  0.00  0.00     0.024 C 
ATOM     22  C8   11 d         -13.998 205.169 115.801  0.00  0.00     0.009 C 
ATOM     23  C9   11 d         -14.785 206.332 115.151  0.00  0.00    -0.013 C 
ATOM     24  C10  11 d         -14.178 206.649 113.764  0.00  0.00     0.024 C 
ENDBRANCH   1  15
TORSDOF 1
ENDMDL
MODEL 3
REMARK VINA RESULT:      -9.2      3.185      5.990
REMARK  1 active torsions:
REMARK  status: ('A' for Active; 'I' for Inactive)
REMARK    1  A    between atoms: C1_1  and  C2_2 
REMARK       I    between atoms: C1_1  and  N1_12 
ROOT
ATOM      1  C1   11 d         -12.064 207.566 113.265  0.00  0.00     0.235 C 
ATOM      2  N1   11 d         -11.811 207.490 114.685  0.00  0.00    -0.287 N 
ATOM      3  C12  11 d         -10.669 208.016 115.335  0.00  0.00     0.227 C 
ATOM      4  O1   11 d          -9.733 208.660 114.744  0.00  0.00    -0.273 OA
ATOM      5  C13  11 d         -10.694 207.820 116.807  0.00  0.00     0.114 C 
ATOM      6  C14  11 d         -12.192 207.563 117.032  0.00  0.00     0.046 C 
ATOM      7  C15  11 d         -12.636 206.816 118.280  0.00  0.00    -0.052 A 
ATOM      8  C16  11 d         -14.007 206.857 118.620  0.00  0.00     0.007 A 
ATOM      9  C17  11 d         -14.482 206.216 119.773  0.00  0.00     0.001 A 
ATOM     10  C18  11 d         -13.590 205.544 120.619  0.00  0.00     0.000 A 
ATOM     11  C19  11 d         -12.223 205.519 120.315  0.00  0.00     0.001 A 
ATOM     12  C20  11 d         -11.745 206.158 119.160  0.00  0.00     0.007 A 
ATOM     13  C21  11 d         -12.651 206.870 115.743  0.00  0.00     0.144 C 
ATOM     14  O2   11 d         -11.173 208.142 112.542  0.00  0.00    -0.272 OA
ENDROOT
BRANCH   1  15
ATOM     15  C2   11 d         -13.301 206.985 112.538  0.00  0.00     0.042 C 
ATOM     16  C3   11 d         -13.635 205.553 113.088  0.00  0.00     0.024 C 
ATOM     17  C4   11 d         -14.831 204.914 112.344  0.00  0.00    -0.013 C 
ATOM     18  C5   11 d         -14.493 204.799 110.840  0.00  0.00     0.009 C 
ATOM     19  C11  11 d         -16.080 205.802 112.529  0.00  0.00     0.009 C 
ATOM     20  C6   11 d         -14.200 206.205 110.271  0.00  0.00    -0.013 C 
ATOM     21  C7   11 d         -12.992 206.821 111.019  0.00  0.00     0.024 C 
ATOM     22  C8   11 d         -15.444 207.105 110.459  0.00  0.00     0.009 C 
ATOM     23  C9   11 d         -15.791 207.210 111.964  0.00  0.00    -0.013 C 
ATOM     24  C10  11 d         -14.597 207.837 112.722  0.00  0.00     0.024 C 
ENDBRANCH   1  15
TORSDOF 1
ENDMDL
MODEL 4
REMARK VINA RESULT:      -9.2      2.409      3.775
REMARK  1 active torsions:
REMARK  status: ('A' for Active; 'I' for Inactive)
REMARK    1  A    between atoms: C1_1  and  C2_2 
REMARK       I    between atoms: C1_1  and  N1_12 
ROOT
ATOM      1  C1   11 d         -11.554 207.552 111.720  0.00  0.00     0.235 C 
ATOM      2  N1   11 d         -10.635 207.863 112.791  0.00  0.00    -0.287 N 
ATOM      3  C12  11 d          -9.320 208.356 112.613  0.00  0.00     0.227 C 
ATOM      4  O1   11 d          -8.796 208.623 111.476  0.00  0.00    -0.273 OA
ATOM      5  C13  11 d          -8.618 208.616 113.895  0.00  0.00     0.114 C 
ATOM      6  C14  11 d          -9.811 208.698 114.859  0.00  0.00     0.046 C 
ATOM      7  C15  11 d          -9.584 208.446 116.342  0.00  0.00    -0.052 A 
ATOM      8  C16  11 d         -10.610 208.820 117.239  0.00  0.00     0.007 A 
ATOM      9  C17  11 d         -10.456 208.645 118.622  0.00  0.00     0.001 A 
ATOM     10  C18  11 d          -9.264 208.114 119.133  0.00  0.00     0.000 A 
ATOM     11  C19  11 d          -8.224 207.766 118.261  0.00  0.00     0.001 A 
ATOM     12  C20  11 d          -8.376 207.939 116.876  0.00  0.00     0.007 A 
ATOM     13  C21  11 d         -10.846 207.741 114.257  0.00  0.00     0.144 C 
ATOM     14  O2   11 d         -11.135 207.725 110.519  0.00  0.00    -0.272 OA
ENDROOT
BRANCH   1  15
ATOM     15  C2   11 d         -12.990 207.000 111.898  0.00  0.00     0.042 C 
ATOM     16  C3   11 d         -12.954 205.608 112.621  0.00  0.00     0.024 C 
ATOM     17  C4   11 d         -14.367 204.995 112.764  0.00  0.00    -0.013 C 
ATOM     18  C5   11 d         -14.986 204.807 111.360  0.00  0.00     0.009 C 
ATOM     19  C11  11 d         -15.252 205.946 113.598  0.00  0.00     0.009 C 
ATOM     20  C6   11 d         -15.066 206.175 110.648  0.00  0.00    -0.013 C 
ATOM     21  C7   11 d         -13.641 206.764 110.502  0.00  0.00     0.024 C 
ATOM     22  C8   11 d         -15.945 207.138 111.480  0.00  0.00     0.009 C 
ATOM     23  C9   11 d         -15.334 207.316 112.891  0.00  0.00    -0.013 C 
ATOM     24  C10  11 d         -13.914 207.918 112.761  0.00  0.00     0.024 C 
ENDBRANCH   1  15
TORSDOF 1
ENDMDL
MODEL 5
REMARK VINA RESULT:      -8.1      3.635      5.081
REMARK  1 active torsions:
REMARK  status: ('A' for Active; 'I' for Inactive)
REMARK    1  A    between atoms: C1_1  and  C2_2 
REMARK       I    between atoms: C1_1  and  N1_12 
ROOT
ATOM      1  C1   11 d         -11.875 206.175 117.577  0.00  0.00     0.235 C 
ATOM      2  N1   11 d         -10.609 206.641 118.093  0.00  0.00    -0.287 N 
ATOM      3  C12  11 d         -10.051 206.264 119.338  0.00  0.00     0.227 C 
ATOM      4  O1   11 d         -10.589 205.430 120.147  0.00  0.00    -0.273 OA
ATOM      5  C13  11 d          -8.722 206.875 119.590  0.00  0.00     0.114 C 
ATOM      6  C14  11 d          -8.314 207.264 118.161  0.00  0.00     0.046 C 
ATOM      7  C15  11 d          -7.279 208.360 117.957  0.00  0.00    -0.052 A 
ATOM      8  C16  11 d          -6.700 208.490 116.675  0.00  0.00     0.007 A 
ATOM      9  C17  11 d          -5.717 209.458 116.424  0.00  0.00     0.001 A 
ATOM     10  C18  11 d          -5.280 210.297 117.457  0.00  0.00     0.000 A 
ATOM     11  C19  11 d          -5.820 210.162 118.742  0.00  0.00     0.001 A 
ATOM     12  C20  11 d          -6.805 209.194 118.997  0.00  0.00     0.007 A 
ATOM     13  C21  11 d          -9.643 207.582 117.465  0.00  0.00     0.144 C 
ATOM     14  O2   11 d         -12.548 205.370 118.317  0.00  0.00    -0.272 OA
ENDROOT
BRANCH   1  15
ATOM     15  C2   11 d         -12.504 206.588 116.224  0.00  0.00     0.042 C 
ATOM     16  C3   11 d         -13.996 206.108 116.146  0.00  0.00     0.024 C 
ATOM     17  C4   11 d         -14.642 206.451 114.783  0.00  0.00    -0.013 C 
ATOM     18  C5   11 d         -13.842 205.763 113.653  0.00  0.00     0.009 C 
ATOM     19  C11  11 d         -14.619 207.981 114.578  0.00  0.00     0.009 C 
ATOM     20  C6   11 d         -12.378 206.254 113.689  0.00  0.00    -0.013 C 
ATOM     21  C7   11 d         -11.747 205.889 115.055  0.00  0.00     0.024 C 
ATOM     22  C8   11 d         -12.344 207.787 113.492  0.00  0.00     0.009 C 
ATOM     23  C9   11 d         -13.157 208.477 114.616  0.00  0.00    -0.013 C 
ATOM     24  C10  11 d         -12.528 208.133 115.987  0.00  0.00     0.024 C 
ENDBRANCH   1  15
TORSDOF 1
ENDMDL
MODEL 6
REMARK VINA RESULT:      -8.1      3.159      4.337
REMARK  1 active torsions:
REMARK  status: ('A' for Active; 'I' for Inactive)
REMARK    1  A    between atoms: C1_1  and  C2_2 
REMARK       I    between atoms: C1_1  and  N1_12 
ROOT
ATOM      1  C1   11 d         -11.386 207.523 117.552  0.00  0.00     0.235 C 
ATOM      2  N1   11 d         -10.019 207.982 117.462  0.00  0.00    -0.287 N 
ATOM      3  C12  11 d          -9.155 208.180 118.566  0.00  0.00     0.227 C 
ATOM      4  O1   11 d          -9.472 207.940 119.784  0.00  0.00    -0.273 OA
ATOM      5  C13  11 d          -7.796 208.625 118.170  0.00  0.00     0.114 C 
ATOM      6  C14  11 d          -7.778 208.200 116.694  0.00  0.00     0.046 C 
ATOM      7  C15  11 d          -6.815 208.884 115.737  0.00  0.00    -0.052 A 
ATOM      8  C16  11 d          -6.597 208.282 114.477  0.00  0.00     0.007 A 
ATOM      9  C17  11 d          -5.699 208.843 113.557  0.00  0.00     0.001 A 
ATOM     10  C18  11 d          -4.986 210.001 113.891  0.00  0.00     0.000 A 
ATOM     11  C19  11 d          -5.164 210.594 115.147  0.00  0.00     0.001 A 
ATOM     12  C20  11 d          -6.064 210.037 116.070  0.00  0.00     0.007 A 
ATOM     13  C21  11 d          -9.239 208.337 116.247  0.00  0.00     0.144 C 
ATOM     14  O2   11 d         -11.851 207.294 118.727  0.00  0.00    -0.272 OA
ENDROOT
BRANCH   1  15
ATOM     15  C2   11 d         -12.346 207.314 116.355  0.00  0.00     0.042 C 
ATOM     16  C3   11 d         -11.927 206.042 115.535  0.00  0.00     0.024 C 
ATOM     17  C4   11 d         -12.828 205.833 114.296  0.00  0.00    -0.013 C 
ATOM     18  C5   11 d         -12.724 207.071 113.375  0.00  0.00     0.009 C 
ATOM     19  C11  11 d         -14.290 205.648 114.754  0.00  0.00     0.009 C 
ATOM     20  C6   11 d         -13.171 208.328 114.154  0.00  0.00    -0.013 C 
ATOM     21  C7   11 d         -12.249 208.527 115.382  0.00  0.00     0.024 C 
ATOM     22  C8   11 d         -14.633 208.149 114.625  0.00  0.00     0.009 C 
ATOM     23  C9   11 d         -14.741 206.902 115.536  0.00  0.00    -0.013 C 
ATOM     24  C10  11 d         -13.835 207.093 116.775  0.00  0.00     0.024 C 
ENDBRANCH   1  15
TORSDOF 1
ENDMDL
MODEL 7
REMARK VINA RESULT:      -7.8      1.562      7.070
REMARK  1 active torsions:
REMARK  status: ('A' for Active; 'I' for Inactive)
REMARK    1  A    between atoms: C1_1  and  C2_2 
REMARK       I    between atoms: C1_1  and  N1_12 
ROOT
ATOM      1  C1   11 d          -8.027 208.748 112.975  0.00  0.00     0.235 C 
ATOM      2  N1   11 d          -9.367 208.216 113.075  0.00  0.00    -0.287 N 
ATOM      3  C12  11 d         -10.290 208.136 112.005  0.00  0.00     0.227 C 
ATOM      4  O1   11 d         -10.035 208.494 110.803  0.00  0.00    -0.273 OA
ATOM      5  C13  11 d         -11.580 207.513 112.394  0.00  0.00     0.114 C 
ATOM      6  C14  11 d         -11.163 206.778 113.677  0.00  0.00     0.046 C 
ATOM      7  C15  11 d         -12.226 206.420 114.704  0.00  0.00    -0.052 A 
ATOM      8  C16  11 d         -11.882 205.492 115.713  0.00  0.00     0.007 A 
ATOM      9  C17  11 d         -12.822 205.093 116.675  0.00  0.00     0.001 A 
ATOM     10  C18  11 d         -14.128 205.597 116.629  0.00  0.00     0.000 A 
ATOM     11  C19  11 d         -14.496 206.493 115.618  0.00  0.00     0.001 A 
ATOM     12  C20  11 d         -13.558 206.896 114.655  0.00  0.00     0.007 A 
ATOM     13  C21  11 d         -10.054 207.657 114.269  0.00  0.00     0.144 C 
ATOM     14  O2   11 d          -7.659 209.194 111.829  0.00  0.00    -0.272 OA
ENDROOT
BRANCH   1  15
ATOM     15  C2   11 d          -7.011 208.854 114.139  0.00  0.00     0.042 C 
ATOM     16  C3   11 d          -6.242 210.220 114.069  0.00  0.00     0.024 C 
ATOM     17  C4   11 d          -5.174 210.338 115.182  0.00  0.00    -0.013 C 
ATOM     18  C5   11 d          -4.152 209.188 115.032  0.00  0.00     0.009 C 
ATOM     19  C11  11 d          -5.863 210.245 116.561  0.00  0.00     0.009 C 
ATOM     20  C6   11 d          -4.887 207.833 115.138  0.00  0.00    -0.013 C 
ATOM     21  C7   11 d          -5.940 207.729 114.008  0.00  0.00     0.024 C 
ATOM     22  C8   11 d          -5.587 207.733 116.514  0.00  0.00     0.009 C 
ATOM     23  C9   11 d          -6.600 208.892 116.670  0.00  0.00    -0.013 C 
ATOM     24  C10  11 d          -7.668 208.793 115.555  0.00  0.00     0.024 C 
ENDBRANCH   1  15
TORSDOF 1
ENDMDL
MODEL 8
REMARK VINA RESULT:      -7.5      5.170      9.394
REMARK  1 active torsions:
REMARK  status: ('A' for Active; 'I' for Inactive)
REMARK    1  A    between atoms: C1_1  and  C2_2 
REMARK       I    between atoms: C1_1  and  N1_12 
ROOT
ATOM      1  C1   11 d         -12.366 206.146 118.488  0.00  0.00     0.235 C 
ATOM      2  N1   11 d         -13.226 205.827 119.604  0.00  0.00    -0.287 N 
ATOM      3  C12  11 d         -12.777 205.511 120.909  0.00  0.00     0.227 C 
ATOM      4  O1   11 d         -11.548 205.506 121.269  0.00  0.00    -0.273 OA
ATOM      5  C13  11 d         -13.888 205.260 121.862  0.00  0.00     0.114 C 
ATOM      6  C14  11 d         -15.052 205.937 121.124  0.00  0.00     0.046 C 
ATOM      7  C15  11 d         -16.478 205.516 121.444  0.00  0.00    -0.052 A 
ATOM      8  C16  11 d         -17.528 206.346 120.992  0.00  0.00     0.007 A 
ATOM      9  C17  11 d         -18.865 206.034 121.277  0.00  0.00     0.001 A 
ATOM     10  C18  11 d         -19.174 204.900 122.039  0.00  0.00     0.000 A 
ATOM     11  C19  11 d         -18.144 204.082 122.522  0.00  0.00     0.001 A 
ATOM     12  C20  11 d         -16.804 204.390 122.237  0.00  0.00     0.007 A 
ATOM     13  C21  11 d         -14.710 205.759 119.640  0.00  0.00     0.144 C 
ATOM     14  O2   11 d         -11.100 206.124 118.699  0.00  0.00    -0.272 OA
ENDROOT
BRANCH   1  15
ATOM     15  C2   11 d         -12.841 206.481 117.053  0.00  0.00     0.042 C 
ATOM     16  C3   11 d         -11.621 206.894 116.156  0.00  0.00     0.024 C 
ATOM     17  C4   11 d         -12.063 207.293 114.729  0.00  0.00    -0.013 C 
ATOM     18  C5   11 d         -13.040 208.488 114.813  0.00  0.00     0.009 C 
ATOM     19  C11  11 d         -12.765 206.094 114.058  0.00  0.00     0.009 C 
ATOM     20  C6   11 d         -14.268 208.086 115.660  0.00  0.00    -0.013 C 
ATOM     21  C7   11 d         -13.806 207.704 117.087  0.00  0.00     0.024 C 
ATOM     22  C8   11 d         -14.975 206.879 115.001  0.00  0.00     0.009 C 
ATOM     23  C9   11 d         -13.993 205.687 114.903  0.00  0.00    -0.013 C 
ATOM     24  C10  11 d         -13.534 205.284 116.324  0.00  0.00     0.024 C 
ENDBRANCH   1  15
TORSDOF 1
ENDMDL
MODEL 9
REMARK VINA RESULT:      -7.5      3.771      7.406
REMARK  1 active torsions:
REMARK  status: ('A' for Active; 'I' for Inactive)
REMARK    1  A    between atoms: C1_1  and  C2_2 
REMARK       I    between atoms: C1_1  and  N1_12 
ROOT
ATOM      1  C1   11 d          -9.201 208.100 118.288  0.00  0.00     0.235 C 
ATOM      2  N1   11 d         -10.167 207.922 117.229  0.00  0.00    -0.287 N 
ATOM      3  C12  11 d         -11.570 207.870 117.411  0.00  0.00     0.227 C 
ATOM      4  O1   11 d         -12.158 208.011 118.540  0.00  0.00    -0.273 OA
ATOM      5  C13  11 d         -12.318 207.712 116.139  0.00  0.00     0.114 C 
ATOM      6  C14  11 d         -11.254 208.170 115.128  0.00  0.00     0.046 C 
ATOM      7  C15  11 d         -11.362 207.714 113.682  0.00  0.00    -0.052 A 
ATOM      8  C16  11 d         -10.569 208.379 112.720  0.00  0.00     0.007 A 
ATOM      9  C17  11 d         -10.640 208.030 111.363  0.00  0.00     0.001 A 
ATOM     10  C18  11 d         -11.522 207.027 110.942  0.00  0.00     0.000 A 
ATOM     11  C19  11 d         -12.339 206.379 111.877  0.00  0.00     0.001 A 
ATOM     12  C20  11 d         -12.270 206.724 113.236  0.00  0.00     0.007 A 
ATOM     13  C21  11 d          -9.924 207.759 115.772  0.00  0.00     0.144 C 
ATOM     14  O2   11 d          -9.655 208.202 119.485  0.00  0.00    -0.272 OA
ENDROOT
BRANCH   1  15
ATOM     15  C2   11 d          -7.664 208.146 118.106  0.00  0.00     0.042 C 
ATOM     16  C3   11 d          -7.060 206.700 118.188  0.00  0.00     0.024 C 
ATOM     17  C4   11 d          -5.518 206.711 118.070  0.00  0.00    -0.013 C 
ATOM     18  C5   11 d          -4.925 207.559 119.218  0.00  0.00     0.009 C 
ATOM     19  C11  11 d          -5.116 207.322 116.711  0.00  0.00     0.009 C 
ATOM     20  C6   11 d          -5.478 208.999 119.129  0.00  0.00    -0.013 C 
ATOM     21  C7   11 d          -7.020 208.967 119.264  0.00  0.00     0.024 C 
ATOM     22  C8   11 d          -5.086 209.618 117.767  0.00  0.00     0.009 C 
ATOM     23  C9   11 d          -5.668 208.761 116.617  0.00  0.00    -0.013 C 
ATOM     24  C10  11 d          -7.211 208.732 116.730  0.00  0.00     0.024 C 
ENDBRANCH   1  15
TORSDOF 1
ENDMDL
MODEL 10
REMARK VINA RESULT:      -7.3      3.743      7.725
REMARK  1 active torsions:
REMARK  status: ('A' for Active; 'I' for Inactive)
REMARK    1  A    between atoms: C1_1  and  C2_2 
REMARK       I    between atoms: C1_1  and  N1_12 
ROOT
ATOM      1  C1   11 d          -8.163 208.348 118.234  0.00  0.00     0.235 C 
ATOM      2  N1   11 d          -9.180 208.228 117.215  0.00  0.00    -0.287 N 
ATOM      3  C12  11 d         -10.574 208.204 117.458  0.00  0.00     0.227 C 
ATOM      4  O1   11 d         -11.107 208.323 118.617  0.00  0.00    -0.273 OA
ATOM      5  C13  11 d         -11.381 208.105 116.216  0.00  0.00     0.114 C 
ATOM      6  C14  11 d         -10.353 208.570 115.174  0.00  0.00     0.046 C 
ATOM      7  C15  11 d         -10.536 208.164 113.720  0.00  0.00    -0.052 A 
ATOM      8  C16  11 d          -9.770 208.840 112.744  0.00  0.00     0.007 A 
ATOM      9  C17  11 d          -9.910 208.538 111.382  0.00  0.00     0.001 A 
ATOM     10  C18  11 d         -10.836 207.571 110.970  0.00  0.00     0.000 A 
ATOM     11  C19  11 d         -11.627 206.912 111.920  0.00  0.00     0.001 A 
ATOM     12  C20  11 d         -11.488 207.211 113.285  0.00  0.00     0.007 A 
ATOM     13  C21  11 d          -9.006 208.107 115.743  0.00  0.00     0.144 C 
ATOM     14  O2   11 d          -8.560 208.422 119.452  0.00  0.00    -0.272 OA
ENDROOT
BRANCH   1  15
ATOM     15  C2   11 d          -6.635 208.363 117.984  0.00  0.00     0.042 C 
ATOM     16  C3   11 d          -6.270 209.436 116.898  0.00  0.00     0.024 C 
ATOM     17  C4   11 d          -4.757 209.441 116.577  0.00  0.00    -0.013 C 
ATOM     18  C5   11 d          -4.342 208.047 116.053  0.00  0.00     0.009 C 
ATOM     19  C11  11 d          -3.965 209.769 117.861  0.00  0.00     0.009 C 
ATOM     20  C6   11 d          -4.658 206.982 117.126  0.00  0.00    -0.013 C 
ATOM     21  C7   11 d          -6.178 206.984 117.422  0.00  0.00     0.024 C 
ATOM     22  C8   11 d          -3.875 207.306 118.420  0.00  0.00     0.009 C 
ATOM     23  C9   11 d          -4.279 208.708 118.938  0.00  0.00    -0.013 C 
ATOM     24  C10  11 d          -5.793 208.720 119.251  0.00  0.00     0.024 C 
ENDBRANCH   1  15
TORSDOF 1
ENDMDL
