MODEL 1
REMARK VINA RESULT:      -8.8      0.000      0.000
REMARK  7 active torsions:
REMARK  status: ('A' for Active; 'I' for Inactive)
REMARK    1  A    between atoms: C3_3  and  N1_4 
REMARK    2  A    between atoms: N1_4  and  C4_5 
REMARK    3  A    between atoms: C4_5  and  C5_6 
REMARK    4  A    between atoms: C5_6  and  C6_7 
REMARK    5  A    between atoms: C6_7  and  C7_8 
REMARK    6  A    between atoms: C10_11  and  O1_12 
REMARK    7  A    between atoms: C21_24  and  N3_25 
ROOT
ATOM      1  C1   11 d         -10.562 208.123 111.886  0.00  0.00    -0.019 A 
ATOM      2  C2   11 d         -11.802 207.639 112.295  0.00  0.00     0.073 A 
ATOM      3  C3   11 d         -12.899 207.196 111.349  0.00  0.00     0.238 C 
ATOM      4  C15  11 d         -12.559 207.703 109.914  0.00  0.00     0.040 C 
ATOM      5  C16  11 d         -11.087 207.473 109.515  0.00  0.00     0.007 C 
ATOM      6  C17  11 d         -10.104 208.194 110.456  0.00  0.00     0.042 C 
ATOM      7  N2   11 d         -11.905 207.713 113.644  0.00  0.00    -0.250 NA
ATOM      8  C18  11 d         -10.719 208.178 114.100  0.00  0.00     0.068 A 
ATOM      9  C19  11 d          -9.867 208.415 113.040  0.00  0.00     0.003 A 
ATOM     10  C20  11 d          -8.565 208.892 113.230  0.00  0.00     0.050 A 
ATOM     11  C21  11 d          -8.110 209.135 114.557  0.00  0.00     0.103 A 
ATOM     12  C22  11 d          -9.011 208.898 115.639  0.00  0.00     0.038 A 
ATOM     13  C23  11 d         -10.318 208.418 115.416  0.00  0.00     0.035 A 
ENDROOT
BRANCH   3  14
ATOM     14  N1   11 d         -13.095 205.698 111.444  0.00  0.00    -0.061 N 
ATOM     15  H2   11 d         -12.285 205.186 110.964  0.00  0.00     0.278 HD
ATOM     16  H3   11 d         -13.043 205.415 112.479  0.00  0.00     0.278 HD
BRANCH  14  17
ATOM     17  C4   11 d         -14.405 205.159 110.919  0.00  0.00     0.183 C 
ATOM     18  C14  11 d         -14.701 203.727 111.413  0.00  0.00     0.040 C 
BRANCH  17  19
ATOM     19  C5   11 d         -15.580 206.104 111.303  0.00  0.00     0.037 C 
BRANCH  19  20
ATOM     20  C6   11 d         -16.300 205.730 112.614  0.00  0.00     0.040 C 
BRANCH  20  21
ATOM     21  C7   11 d         -15.585 206.266 113.835  0.00  0.00    -0.058 A 
ATOM     22  C8   11 d         -15.082 205.386 114.819  0.00  0.00     0.010 A 
ATOM     23  C9   11 d         -14.416 205.888 115.947  0.00  0.00     0.037 A 
ATOM     24  C10  11 d         -14.262 207.271 116.119  0.00  0.00     0.068 A 
ATOM     25  C12  11 d         -14.740 208.150 115.138  0.00  0.00     0.037 A 
ATOM     26  C13  11 d         -15.416 207.656 114.014  0.00  0.00     0.010 A 
BRANCH  24  27
ATOM     27  O1   11 d         -13.498 207.766 117.206  0.00  0.00    -0.356 OA
ATOM     28  C11  11 d         -12.687 206.700 117.761  0.00  0.00     0.210 C 
ENDBRANCH  24  27
ENDBRANCH  20  21
ENDBRANCH  19  20
ENDBRANCH  17  19
ENDBRANCH  14  17
ENDBRANCH   3  14
BRANCH  11  29
ATOM     29  N3   11 d          -6.816 209.607 114.795  0.00  0.00    -0.116 N 
ATOM     30  O2   11 d          -6.629 210.721 114.969  0.00  0.00    -0.532 OA
ATOM     31  O3   11 d          -5.818 208.858 114.611  0.00  0.00    -0.532 OA
ENDBRANCH  11  29
TORSDOF 7
ENDMDL
MODEL 2
REMARK VINA RESULT:      -8.8      1.958      6.568
REMARK  7 active torsions:
REMARK  status: ('A' for Active; 'I' for Inactive)
REMARK    1  A    between atoms: C3_3  and  N1_4 
REMARK    2  A    between atoms: N1_4  and  C4_5 
REMARK    3  A    between atoms: C4_5  and  C5_6 
REMARK    4  A    between atoms: C5_6  and  C6_7 
REMARK    5  A    between atoms: C6_7  and  C7_8 
REMARK    6  A    between atoms: C10_11  and  O1_12 
REMARK    7  A    between atoms: C21_24  and  N3_25 
ROOT
ATOM      1  C1   11 d         -14.472 205.938 114.375  0.00  0.00    -0.019 A 
ATOM      2  C2   11 d         -13.421 205.847 113.467  0.00  0.00     0.073 A 
ATOM      3  C3   11 d         -13.597 205.692 111.970  0.00  0.00     0.238 C 
ATOM      4  C15  11 d         -15.076 205.293 111.678  0.00  0.00     0.040 C 
ATOM      5  C16  11 d         -16.104 206.125 112.473  0.00  0.00     0.007 C 
ATOM      6  C17  11 d         -15.925 205.981 113.995  0.00  0.00     0.042 C 
ATOM      7  N2   11 d         -12.238 205.826 114.129  0.00  0.00    -0.250 NA
ATOM      8  C18  11 d         -12.526 205.967 115.443  0.00  0.00     0.068 A 
ATOM      9  C19  11 d         -13.892 206.063 115.620  0.00  0.00     0.003 A 
ATOM     10  C20  11 d         -14.464 206.227 116.886  0.00  0.00     0.050 A 
ATOM     11  C21  11 d         -13.609 206.301 118.021  0.00  0.00     0.103 A 
ATOM     12  C22  11 d         -12.201 206.186 117.821  0.00  0.00     0.038 A 
ATOM     13  C23  11 d         -11.652 206.020 116.532  0.00  0.00     0.035 A 
ENDROOT
BRANCH   3  14
ATOM     14  N1   11 d         -13.145 206.950 111.260  0.00  0.00    -0.061 N 
ATOM     15  H2   11 d         -13.729 207.108 110.375  0.00  0.00     0.278 HD
ATOM     16  H3   11 d         -13.352 207.791 111.896  0.00  0.00     0.278 HD
BRANCH  14  17
ATOM     17  C4   11 d         -11.678 207.031 110.908  0.00  0.00     0.183 C 
ATOM     18  C14  11 d         -11.434 207.602 109.495  0.00  0.00     0.040 C 
BRANCH  17  19
ATOM     19  C5   11 d         -10.907 207.877 111.961  0.00  0.00     0.037 C 
BRANCH  19  20
ATOM     20  C6   11 d          -9.775 208.746 111.378  0.00  0.00     0.040 C 
BRANCH  20  21
ATOM     21  C7   11 d          -8.622 208.912 112.344  0.00  0.00    -0.058 A 
ATOM     22  C8   11 d          -7.326 208.469 111.999  0.00  0.00     0.010 A 
ATOM     23  C9   11 d          -6.259 208.628 112.896  0.00  0.00     0.037 A 
ATOM     24  C10  11 d          -6.474 209.212 114.153  0.00  0.00     0.068 A 
ATOM     25  C12  11 d          -7.753 209.674 114.494  0.00  0.00     0.037 A 
ATOM     26  C13  11 d          -8.825 209.507 113.608  0.00  0.00     0.010 A 
BRANCH  24  27
ATOM     27  O1   11 d          -5.374 209.466 115.011  0.00  0.00    -0.356 OA
ATOM     28  C11  11 d          -5.751 210.444 116.013  0.00  0.00     0.210 C 
ENDBRANCH  24  27
ENDBRANCH  20  21
ENDBRANCH  19  20
ENDBRANCH  17  19
ENDBRANCH  14  17
ENDBRANCH   3  14
BRANCH  11  29
ATOM     29  N3   11 d         -14.137 206.470 119.305  0.00  0.00    -0.116 N 
ATOM     30  O2   11 d         -14.154 207.505 119.791  0.00  0.00    -0.532 OA
ATOM     31  O3   11 d         -14.400 205.470 120.026  0.00  0.00    -0.532 OA
ENDBRANCH  11  29
TORSDOF 7
ENDMDL
MODEL 3
REMARK VINA RESULT:      -8.4      3.262      7.566
REMARK  7 active torsions:
REMARK  status: ('A' for Active; 'I' for Inactive)
REMARK    1  A    between atoms: C3_3  and  N1_4 
REMARK    2  A    between atoms: N1_4  and  C4_5 
REMARK    3  A    between atoms: C4_5  and  C5_6 
REMARK    4  A    between atoms: C5_6  and  C6_7 
REMARK    5  A    between atoms: C6_7  and  C7_8 
REMARK    6  A    between atoms: C10_11  and  O1_12 
REMARK    7  A    between atoms: C21_24  and  N3_25 
ROOT
ATOM      1  C1   11 d         -11.941 206.494 117.642  0.00  0.00    -0.019 A 
ATOM      2  C2   11 d         -11.615 207.453 116.686  0.00  0.00     0.073 A 
ATOM      3  C3   11 d         -10.446 208.410 116.801  0.00  0.00     0.238 C 
ATOM      4  C15  11 d          -9.925 208.391 118.270  0.00  0.00     0.040 C 
ATOM      5  C16  11 d          -9.792 206.970 118.855  0.00  0.00     0.007 C 
ATOM      6  C17  11 d         -11.134 206.216 118.878  0.00  0.00     0.042 C 
ATOM      7  N2   11 d         -12.545 207.457 115.699  0.00  0.00    -0.250 NA
ATOM      8  C18  11 d         -13.421 206.468 115.987  0.00  0.00     0.068 A 
ATOM      9  C19  11 d         -13.059 205.844 117.164  0.00  0.00     0.003 A 
ATOM     10  C20  11 d         -13.790 204.773 117.690  0.00  0.00     0.050 A 
ATOM     11  C21  11 d         -14.940 204.316 116.985  0.00  0.00     0.103 A 
ATOM     12  C22  11 d         -15.307 204.982 115.778  0.00  0.00     0.038 A 
ATOM     13  C23  11 d         -14.550 206.059 115.272  0.00  0.00     0.035 A 
ENDROOT
BRANCH   3  14
ATOM     14  N1   11 d          -9.392 208.071 115.768  0.00  0.00    -0.061 N 
ATOM     15  H2   11 d          -8.661 207.408 116.186  0.00  0.00     0.278 HD
ATOM     16  H3   11 d          -9.862 207.520 114.974  0.00  0.00     0.278 HD
BRANCH  14  17
ATOM     17  C4   11 d          -8.689 209.240 115.119  0.00  0.00     0.183 C 
ATOM     18  C14  11 d          -7.161 209.042 115.030  0.00  0.00     0.040 C 
BRANCH  17  19
ATOM     19  C5   11 d          -9.271 209.512 113.702  0.00  0.00     0.037 C 
BRANCH  19  20
ATOM     20  C6   11 d          -8.947 208.424 112.659  0.00  0.00     0.040 C 
BRANCH  20  21
ATOM     21  C7   11 d         -10.193 207.853 112.019  0.00  0.00    -0.058 A 
ATOM     22  C8   11 d         -11.136 207.138 112.791  0.00  0.00     0.010 A 
ATOM     23  C9   11 d         -12.292 206.614 112.194  0.00  0.00     0.037 A 
ATOM     24  C10  11 d         -12.513 206.778 110.819  0.00  0.00     0.068 A 
ATOM     25  C12  11 d         -11.593 207.504 110.049  0.00  0.00     0.037 A 
ATOM     26  C13  11 d         -10.430 208.020 110.637  0.00  0.00     0.010 A 
BRANCH  24  27
ATOM     27  O1   11 d         -13.732 206.338 110.242  0.00  0.00    -0.356 OA
ATOM     28  C11  11 d         -14.727 207.388 110.342  0.00  0.00     0.210 C 
ENDBRANCH  24  27
ENDBRANCH  20  21
ENDBRANCH  19  20
ENDBRANCH  17  19
ENDBRANCH  14  17
ENDBRANCH   3  14
BRANCH  11  29
ATOM     29  N3   11 d         -15.698 203.246 117.470  0.00  0.00    -0.116 N 
ATOM     30  O2   11 d         -15.231 202.481 118.179  0.00  0.00    -0.532 OA
ATOM     31  O3   11 d         -16.827 202.984 116.973  0.00  0.00    -0.532 OA
ENDBRANCH  11  29
TORSDOF 7
ENDMDL
MODEL 4
REMARK VINA RESULT:      -8.3      2.194      4.002
REMARK  7 active torsions:
REMARK  status: ('A' for Active; 'I' for Inactive)
REMARK    1  A    between atoms: C3_3  and  N1_4 
REMARK    2  A    between atoms: N1_4  and  C4_5 
REMARK    3  A    between atoms: C4_5  and  C5_6 
REMARK    4  A    between atoms: C5_6  and  C6_7 
REMARK    5  A    between atoms: C6_7  and  C7_8 
REMARK    6  A    between atoms: C10_11  and  O1_12 
REMARK    7  A    between atoms: C21_24  and  N3_25 
ROOT
ATOM      1  C1   11 d          -9.446 208.371 113.391  0.00  0.00    -0.019 A 
ATOM      2  C2   11 d         -10.274 208.315 114.509  0.00  0.00     0.073 A 
ATOM      3  C3   11 d         -11.748 207.969 114.462  0.00  0.00     0.238 C 
ATOM      4  C15  11 d         -12.236 208.051 112.983  0.00  0.00     0.040 C 
ATOM      5  C16  11 d         -11.275 207.377 111.982  0.00  0.00     0.007 C 
ATOM      6  C17  11 d          -9.873 208.014 111.995  0.00  0.00     0.042 C 
ATOM      7  N2   11 d          -9.588 208.703 115.612  0.00  0.00    -0.250 NA
ATOM      8  C18  11 d          -8.317 208.942 115.215  0.00  0.00     0.068 A 
ATOM      9  C19  11 d          -8.197 208.721 113.858  0.00  0.00     0.003 A 
ATOM     10  C20  11 d          -6.980 208.885 113.187  0.00  0.00     0.050 A 
ATOM     11  C21  11 d          -5.835 209.287 113.931  0.00  0.00     0.103 A 
ATOM     12  C22  11 d          -5.982 209.524 115.331  0.00  0.00     0.038 A 
ATOM     13  C23  11 d          -7.222 209.352 115.980  0.00  0.00     0.035 A 
ENDROOT
BRANCH   3  14
ATOM     14  N1   11 d         -11.988 206.626 115.118  0.00  0.00    -0.061 N 
ATOM     15  H2   11 d         -12.108 205.864 114.373  0.00  0.00     0.278 HD
ATOM     16  H3   11 d         -11.106 206.355 115.667  0.00  0.00     0.278 HD
BRANCH  14  17
ATOM     17  C4   11 d         -13.140 206.552 116.093  0.00  0.00     0.183 C 
ATOM     18  C14  11 d         -13.953 207.862 116.154  0.00  0.00     0.040 C 
BRANCH  17  19
ATOM     19  C5   11 d         -14.078 205.362 115.743  0.00  0.00     0.037 C 
BRANCH  19  20
ATOM     20  C6   11 d         -15.393 205.769 115.047  0.00  0.00     0.040 C 
BRANCH  20  21
ATOM     21  C7   11 d         -15.225 205.939 113.553  0.00  0.00    -0.058 A 
ATOM     22  C8   11 d         -15.891 206.978 112.868  0.00  0.00     0.010 A 
ATOM     23  C9   11 d         -15.728 207.135 111.483  0.00  0.00     0.037 A 
ATOM     24  C10  11 d         -14.917 206.247 110.763  0.00  0.00     0.068 A 
ATOM     25  C12  11 d         -14.235 205.225 111.438  0.00  0.00     0.037 A 
ATOM     26  C13  11 d         -14.403 205.056 112.820  0.00  0.00     0.010 A 
BRANCH  24  27
ATOM     27  O1   11 d         -14.673 206.473 109.384  0.00  0.00    -0.356 OA
ATOM     28  C11  11 d         -14.267 207.849 109.179  0.00  0.00     0.210 C 
ENDBRANCH  24  27
ENDBRANCH  20  21
ENDBRANCH  19  20
ENDBRANCH  17  19
ENDBRANCH  14  17
ENDBRANCH   3  14
BRANCH  11  29
ATOM     29  N3   11 d          -4.597 209.457 113.304  0.00  0.00    -0.116 N 
ATOM     30  O2   11 d          -3.987 210.409 113.477  0.00  0.00    -0.532 OA
ATOM     31  O3   11 d          -4.234 208.678 112.382  0.00  0.00    -0.532 OA
ENDBRANCH  11  29
TORSDOF 7
ENDMDL
MODEL 5
REMARK VINA RESULT:      -8.1      3.490      6.624
REMARK  7 active torsions:
REMARK  status: ('A' for Active; 'I' for Inactive)
REMARK    1  A    between atoms: C3_3  and  N1_4 
REMARK    2  A    between atoms: N1_4  and  C4_5 
REMARK    3  A    between atoms: C4_5  and  C5_6 
REMARK    4  A    between atoms: C5_6  and  C6_7 
REMARK    5  A    between atoms: C6_7  and  C7_8 
REMARK    6  A    between atoms: C10_11  and  O1_12 
REMARK    7  A    between atoms: C21_24  and  N3_25 
ROOT
ATOM      1  C1   11 d         -11.909 207.035 116.434  0.00  0.00    -0.019 A 
ATOM      2  C2   11 d         -11.976 207.418 115.096  0.00  0.00     0.073 A 
ATOM      3  C3   11 d         -11.011 208.382 114.436  0.00  0.00     0.238 C 
ATOM      4  C15  11 d         -10.204 209.122 115.546  0.00  0.00     0.040 C 
ATOM      5  C16  11 d          -9.685 208.184 116.656  0.00  0.00     0.007 C 
ATOM      6  C17  11 d         -10.826 207.453 117.387  0.00  0.00     0.042 C 
ATOM      7  N2   11 d         -13.073 206.876 114.514  0.00  0.00    -0.250 NA
ATOM      8  C18  11 d         -13.668 206.102 115.450  0.00  0.00     0.068 A 
ATOM      9  C19  11 d         -12.958 206.162 116.633  0.00  0.00     0.003 A 
ATOM     10  C20  11 d         -13.349 205.443 117.768  0.00  0.00     0.050 A 
ATOM     11  C21  11 d         -14.511 204.624 117.695  0.00  0.00     0.103 A 
ATOM     12  C22  11 d         -15.240 204.586 116.468  0.00  0.00     0.038 A 
ATOM     13  C23  11 d         -14.822 205.322 115.341  0.00  0.00     0.035 A 
ENDROOT
BRANCH   3  14
ATOM     14  N1   11 d         -10.150 207.649 113.430  0.00  0.00    -0.061 N 
ATOM     15  H2   11 d          -9.202 207.399 113.864  0.00  0.00     0.278 HD
ATOM     16  H3   11 d         -10.619 206.709 113.203  0.00  0.00     0.278 HD
BRANCH  14  17
ATOM     17  C4   11 d          -9.924 208.344 112.108  0.00  0.00     0.183 C 
ATOM     18  C14  11 d          -8.504 208.938 111.982  0.00  0.00     0.040 C 
BRANCH  17  19
ATOM     19  C5   11 d         -10.198 207.373 110.924  0.00  0.00     0.037 C 
BRANCH  19  20
ATOM     20  C6   11 d         -11.355 207.803 110.000  0.00  0.00     0.040 C 
BRANCH  20  21
ATOM     21  C7   11 d         -12.665 207.144 110.374  0.00  0.00    -0.058 A 
ATOM     22  C8   11 d         -13.876 207.559 109.777  0.00  0.00     0.010 A 
ATOM     23  C9   11 d         -15.087 206.942 110.123  0.00  0.00     0.037 A 
ATOM     24  C10  11 d         -15.109 205.919 111.082  0.00  0.00     0.068 A 
ATOM     25  C12  11 d         -13.909 205.486 111.664  0.00  0.00     0.037 A 
ATOM     26  C13  11 d         -12.697 206.107 111.331  0.00  0.00     0.010 A 
BRANCH  24  27
ATOM     27  O1   11 d         -16.318 205.229 111.350  0.00  0.00    -0.356 OA
ATOM     28  C11  11 d         -17.132 206.005 112.265  0.00  0.00     0.210 C 
ENDBRANCH  24  27
ENDBRANCH  20  21
ENDBRANCH  19  20
ENDBRANCH  17  19
ENDBRANCH  14  17
ENDBRANCH   3  14
BRANCH  11  29
ATOM     29  N3   11 d         -14.936 203.884 118.802  0.00  0.00    -0.116 N 
ATOM     30  O2   11 d         -14.586 204.164 119.854  0.00  0.00    -0.532 OA
ATOM     31  O3   11 d         -15.528 202.781 118.646  0.00  0.00    -0.532 OA
ENDBRANCH  11  29
TORSDOF 7
ENDMDL
MODEL 6
REMARK VINA RESULT:      -8.1      2.574      4.921
REMARK  7 active torsions:
REMARK  status: ('A' for Active; 'I' for Inactive)
REMARK    1  A    between atoms: C3_3  and  N1_4 
REMARK    2  A    between atoms: N1_4  and  C4_5 
REMARK    3  A    between atoms: C4_5  and  C5_6 
REMARK    4  A    between atoms: C5_6  and  C6_7 
REMARK    5  A    between atoms: C6_7  and  C7_8 
REMARK    6  A    between atoms: C10_11  and  O1_12 
REMARK    7  A    between atoms: C21_24  and  N3_25 
ROOT
ATOM      1  C1   11 d          -8.021 208.633 113.782  0.00  0.00    -0.019 A 
ATOM      2  C2   11 d          -8.516 208.684 115.083  0.00  0.00     0.073 A 
ATOM      3  C3   11 d          -9.982 208.561 115.443  0.00  0.00     0.238 C 
ATOM      4  C15  11 d         -10.833 208.738 114.148  0.00  0.00     0.040 C 
ATOM      5  C16  11 d         -10.288 207.945 112.943  0.00  0.00     0.007 C 
ATOM      6  C17  11 d          -8.857 208.365 112.563  0.00  0.00     0.042 C 
ATOM      7  N2   11 d          -7.509 208.948 115.951  0.00  0.00    -0.250 NA
ATOM      8  C18  11 d          -6.371 209.002 115.221  0.00  0.00     0.068 A 
ATOM      9  C19  11 d          -6.655 208.786 113.887  0.00  0.00     0.003 A 
ATOM     10  C20  11 d          -5.654 208.777 112.910  0.00  0.00     0.050 A 
ATOM     11  C21  11 d          -4.304 208.993 113.308  0.00  0.00     0.103 A 
ATOM     12  C22  11 d          -4.032 209.228 114.690  0.00  0.00     0.038 A 
ATOM     13  C23  11 d          -5.062 209.232 115.653  0.00  0.00     0.035 A 
ENDROOT
BRANCH   3  14
ATOM     14  N1   11 d         -10.232 207.259 116.173  0.00  0.00    -0.061 N 
ATOM     15  H2   11 d         -10.780 206.582 115.549  0.00  0.00     0.278 HD
ATOM     16  H3   11 d          -9.285 206.784 116.352  0.00  0.00     0.278 HD
BRANCH  14  17
ATOM     17  C4   11 d         -10.918 207.364 117.515  0.00  0.00     0.183 C 
ATOM     18  C14  11 d         -10.467 208.600 118.321  0.00  0.00     0.040 C 
BRANCH  17  19
ATOM     19  C5   11 d         -12.464 207.382 117.340  0.00  0.00     0.037 C 
BRANCH  19  20
ATOM     20  C6   11 d         -13.050 206.107 116.700  0.00  0.00     0.040 C 
BRANCH  20  21
ATOM     21  C7   11 d         -13.595 206.360 115.311  0.00  0.00    -0.058 A 
ATOM     22  C8   11 d         -14.751 207.149 115.124  0.00  0.00     0.010 A 
ATOM     23  C9   11 d         -15.250 207.384 113.835  0.00  0.00     0.037 A 
ATOM     24  C10  11 d         -14.616 206.819 112.718  0.00  0.00     0.068 A 
ATOM     25  C12  11 d         -13.456 206.052 112.893  0.00  0.00     0.037 A 
ATOM     26  C13  11 d         -12.959 205.804 114.180  0.00  0.00     0.010 A 
BRANCH  24  27
ATOM     27  O1   11 d         -15.063 207.146 111.413  0.00  0.00    -0.356 OA
ATOM     28  C11  11 d         -16.376 206.574 111.187  0.00  0.00     0.210 C 
ENDBRANCH  24  27
ENDBRANCH  20  21
ENDBRANCH  19  20
ENDBRANCH  17  19
ENDBRANCH  14  17
ENDBRANCH   3  14
BRANCH  11  29
ATOM     29  N3   11 d          -3.270 208.987 112.367  0.00  0.00    -0.116 N 
ATOM     30  O2   11 d          -3.079 208.062 111.724  0.00  0.00    -0.532 OA
ATOM     31  O3   11 d          -2.405 209.904 112.361  0.00  0.00    -0.532 OA
ENDBRANCH  11  29
TORSDOF 7
ENDMDL
MODEL 7
REMARK VINA RESULT:      -8.0      4.111      7.190
REMARK  7 active torsions:
REMARK  status: ('A' for Active; 'I' for Inactive)
REMARK    1  A    between atoms: C3_3  and  N1_4 
REMARK    2  A    between atoms: N1_4  and  C4_5 
REMARK    3  A    between atoms: C4_5  and  C5_6 
REMARK    4  A    between atoms: C5_6  and  C6_7 
REMARK    5  A    between atoms: C6_7  and  C7_8 
REMARK    6  A    between atoms: C10_11  and  O1_12 
REMARK    7  A    between atoms: C21_24  and  N3_25 
ROOT
ATOM      1  C1   11 d         -13.221 206.161 114.812  0.00  0.00    -0.019 A 
ATOM      2  C2   11 d         -14.128 205.742 115.782  0.00  0.00     0.073 A 
ATOM      3  C3   11 d         -13.768 205.472 117.228  0.00  0.00     0.238 C 
ATOM      4  C15  11 d         -12.215 205.385 117.350  0.00  0.00     0.040 C 
ATOM      5  C16  11 d         -11.477 206.505 116.589  0.00  0.00     0.007 C 
ATOM      6  C17  11 d         -11.779 206.487 115.079  0.00  0.00     0.042 C 
ATOM      7  N2   11 d         -15.342 205.527 115.217  0.00  0.00    -0.250 NA
ATOM      8  C18  11 d         -15.230 205.868 113.913  0.00  0.00     0.068 A 
ATOM      9  C19  11 d         -13.941 206.285 113.643  0.00  0.00     0.003 A 
ATOM     10  C20  11 d         -13.552 206.706 112.367  0.00  0.00     0.050 A 
ATOM     11  C21  11 d         -14.517 206.707 111.321  0.00  0.00     0.103 A 
ATOM     12  C22  11 d         -15.840 206.259 111.616  0.00  0.00     0.038 A 
ATOM     13  C23  11 d         -16.204 205.840 112.912  0.00  0.00     0.035 A 
ENDROOT
BRANCH   3  14
ATOM     14  N1   11 d         -14.400 206.515 118.125  0.00  0.00    -0.061 N 
ATOM     15  H2   11 d         -14.141 207.500 117.791  0.00  0.00     0.278 HD
ATOM     16  H3   11 d         -15.467 206.447 118.023  0.00  0.00     0.278 HD
BRANCH  14  17
ATOM     17  C4   11 d         -14.103 206.398 119.602  0.00  0.00     0.183 C 
ATOM     18  C14  11 d         -15.107 207.180 120.476  0.00  0.00     0.040 C 
BRANCH  17  19
ATOM     19  C5   11 d         -14.074 204.905 120.038  0.00  0.00     0.037 C 
BRANCH  19  20
ATOM     20  C6   11 d         -15.390 204.394 120.658  0.00  0.00     0.040 C 
BRANCH  20  21
ATOM     21  C7   11 d         -16.304 203.763 119.630  0.00  0.00    -0.058 A 
ATOM     22  C8   11 d         -17.707 203.820 119.784  0.00  0.00     0.010 A 
ATOM     23  C9   11 d         -18.550 203.238 118.826  0.00  0.00     0.037 A 
ATOM     24  C10  11 d         -18.007 202.576 117.715  0.00  0.00     0.068 A 
ATOM     25  C12  11 d         -16.616 202.534 117.544  0.00  0.00     0.037 A 
ATOM     26  C13  11 d         -15.767 203.103 118.503  0.00  0.00     0.010 A 
BRANCH  24  27
ATOM     27  O1   11 d         -18.863 202.083 116.698  0.00  0.00    -0.356 OA
ATOM     28  C11  11 d         -20.237 202.431 117.005  0.00  0.00     0.210 C 
ENDBRANCH  24  27
ENDBRANCH  20  21
ENDBRANCH  19  20
ENDBRANCH  17  19
ENDBRANCH  14  17
ENDBRANCH   3  14
BRANCH  11  29
ATOM     29  N3   11 d         -14.175 207.125 110.032  0.00  0.00    -0.116 N 
ATOM     30  O2   11 d         -13.078 207.240 109.733  0.00  0.00    -0.532 OA
ATOM     31  O3   11 d         -15.055 207.585 109.253  0.00  0.00    -0.532 OA
ENDBRANCH  11  29
TORSDOF 7
ENDMDL
MODEL 8
REMARK VINA RESULT:      -8.0      3.251      7.312
REMARK  7 active torsions:
REMARK  status: ('A' for Active; 'I' for Inactive)
REMARK    1  A    between atoms: C3_3  and  N1_4 
REMARK    2  A    between atoms: N1_4  and  C4_5 
REMARK    3  A    between atoms: C4_5  and  C5_6 
REMARK    4  A    between atoms: C5_6  and  C6_7 
REMARK    5  A    between atoms: C6_7  and  C7_8 
REMARK    6  A    between atoms: C10_11  and  O1_12 
REMARK    7  A    between atoms: C21_24  and  N3_25 
ROOT
ATOM      1  C1   11 d          -9.562 207.316 117.858  0.00  0.00    -0.019 A 
ATOM      2  C2   11 d          -9.182 208.216 116.866  0.00  0.00     0.073 A 
ATOM      3  C3   11 d          -7.776 208.751 116.692  0.00  0.00     0.238 C 
ATOM      4  C15  11 d          -6.955 208.431 117.978  0.00  0.00     0.040 C 
ATOM      5  C16  11 d          -7.150 206.988 118.487  0.00  0.00     0.007 C 
ATOM      6  C17  11 d          -8.618 206.684 118.841  0.00  0.00     0.042 C 
ATOM      7  N2   11 d         -10.268 208.601 116.151  0.00  0.00    -0.250 NA
ATOM      8  C18  11 d         -11.321 207.906 116.639  0.00  0.00     0.068 A 
ATOM      9  C19  11 d         -10.909 207.089 117.673  0.00  0.00     0.003 A 
ATOM     10  C20  11 d         -11.799 206.250 118.352  0.00  0.00     0.050 A 
ATOM     11  C21  11 d         -13.167 206.238 117.959  0.00  0.00     0.103 A 
ATOM     12  C22  11 d         -13.577 207.099 116.897  0.00  0.00     0.038 A 
ATOM     13  C23  11 d         -12.657 207.935 116.231  0.00  0.00     0.035 A 
ENDROOT
BRANCH   3  14
ATOM     14  N1   11 d          -7.166 208.207 115.418  0.00  0.00    -0.061 N 
ATOM     15  H2   11 d          -6.175 207.843 115.606  0.00  0.00     0.278 HD
ATOM     16  H3   11 d          -7.735 207.350 115.109  0.00  0.00     0.278 HD
BRANCH  14  17
ATOM     17  C4   11 d          -7.133 209.148 114.236  0.00  0.00     0.183 C 
ATOM     18  C14  11 d          -5.732 209.749 113.991  0.00  0.00     0.040 C 
BRANCH  17  19
ATOM     19  C5   11 d          -7.632 208.429 112.950  0.00  0.00     0.037 C 
BRANCH  19  20
ATOM     20  C6   11 d          -8.735 209.185 112.182  0.00  0.00     0.040 C 
BRANCH  20  21
ATOM     21  C7   11 d          -9.943 208.316 111.907  0.00  0.00    -0.058 A 
ATOM     22  C8   11 d         -10.429 208.155 110.591  0.00  0.00     0.010 A 
ATOM     23  C9   11 d         -11.547 207.345 110.341  0.00  0.00     0.037 A 
ATOM     24  C10  11 d         -12.205 206.703 111.400  0.00  0.00     0.068 A 
ATOM     25  C12  11 d         -11.716 206.840 112.707  0.00  0.00     0.037 A 
ATOM     26  C13  11 d         -10.607 207.657 112.965  0.00  0.00     0.010 A 
BRANCH  24  27
ATOM     27  O1   11 d         -13.267 205.804 111.129  0.00  0.00    -0.356 OA
ATOM     28  C11  11 d         -14.245 206.445 110.272  0.00  0.00     0.210 C 
ENDBRANCH  24  27
ENDBRANCH  20  21
ENDBRANCH  19  20
ENDBRANCH  17  19
ENDBRANCH  14  17
ENDBRANCH   3  14
BRANCH  11  29
ATOM     29  N3   11 d         -14.091 205.411 118.605  0.00  0.00    -0.116 N 
ATOM     30  O2   11 d         -14.370 205.599 119.697  0.00  0.00    -0.532 OA
ATOM     31  O3   11 d         -14.464 204.330 118.073  0.00  0.00    -0.532 OA
ENDBRANCH  11  29
TORSDOF 7
ENDMDL
MODEL 9
REMARK VINA RESULT:      -7.9      2.365      3.619
REMARK  7 active torsions:
REMARK  status: ('A' for Active; 'I' for Inactive)
REMARK    1  A    between atoms: C3_3  and  N1_4 
REMARK    2  A    between atoms: N1_4  and  C4_5 
REMARK    3  A    between atoms: C4_5  and  C5_6 
REMARK    4  A    between atoms: C5_6  and  C6_7 
REMARK    5  A    between atoms: C6_7  and  C7_8 
REMARK    6  A    between atoms: C10_11  and  O1_12 
REMARK    7  A    between atoms: C21_24  and  N3_25 
ROOT
ATOM      1  C1   11 d          -8.310 208.742 115.025  0.00  0.00    -0.019 A 
ATOM      2  C2   11 d          -9.582 208.685 114.463  0.00  0.00     0.073 A 
ATOM      3  C3   11 d          -9.871 208.851 112.986  0.00  0.00     0.238 C 
ATOM      4  C15  11 d          -8.605 209.441 112.291  0.00  0.00     0.040 C 
ATOM      5  C16  11 d          -7.292 208.758 112.727  0.00  0.00     0.007 C 
ATOM      6  C17  11 d          -7.037 208.889 114.240  0.00  0.00     0.042 C 
ATOM      7  N2   11 d         -10.513 208.554 115.440  0.00  0.00    -0.250 NA
ATOM      8  C18  11 d          -9.840 208.462 116.609  0.00  0.00     0.068 A 
ATOM      9  C19  11 d          -8.481 208.550 116.380  0.00  0.00     0.003 A 
ATOM     10  C20  11 d          -7.549 208.472 117.420  0.00  0.00     0.050 A 
ATOM     11  C21  11 d          -8.019 208.294 118.752  0.00  0.00     0.103 A 
ATOM     12  C22  11 d          -9.428 208.220 118.971  0.00  0.00     0.038 A 
ATOM     13  C23  11 d         -10.344 208.301 117.902  0.00  0.00     0.035 A 
ENDROOT
BRANCH   3  14
ATOM     14  N1   11 d         -10.344 207.539 112.397  0.00  0.00    -0.061 N 
ATOM     15  H2   11 d          -9.516 206.995 111.987  0.00  0.00     0.278 HD
ATOM     16  H3   11 d         -10.723 206.928 113.195  0.00  0.00     0.278 HD
BRANCH  14  17
ATOM     17  C4   11 d         -11.442 207.625 111.364  0.00  0.00     0.183 C 
ATOM     18  C14  11 d         -10.899 207.715 109.922  0.00  0.00     0.040 C 
BRANCH  17  19
ATOM     19  C5   11 d         -12.409 206.413 111.490  0.00  0.00     0.037 C 
BRANCH  19  20
ATOM     20  C6   11 d         -13.807 206.764 112.037  0.00  0.00     0.040 C 
BRANCH  20  21
ATOM     21  C7   11 d         -13.800 206.985 113.534  0.00  0.00    -0.058 A 
ATOM     22  C8   11 d         -13.337 205.976 114.407  0.00  0.00     0.010 A 
ATOM     23  C9   11 d         -13.328 206.187 115.794  0.00  0.00     0.037 A 
ATOM     24  C10  11 d         -13.799 207.395 116.328  0.00  0.00     0.068 A 
ATOM     25  C12  11 d         -14.241 208.410 115.467  0.00  0.00     0.037 A 
ATOM     26  C13  11 d         -14.263 208.201 114.081  0.00  0.00     0.010 A 
BRANCH  24  27
ATOM     27  O1   11 d         -13.689 207.643 117.720  0.00  0.00    -0.356 OA
ATOM     28  C11  11 d         -13.563 206.386 118.432  0.00  0.00     0.210 C 
ENDBRANCH  24  27
ENDBRANCH  20  21
ENDBRANCH  19  20
ENDBRANCH  17  19
ENDBRANCH  14  17
ENDBRANCH   3  14
BRANCH  11  29
ATOM     29  N3   11 d          -7.124 208.206 119.822  0.00  0.00    -0.116 N 
ATOM     30  O2   11 d          -6.512 209.117 120.141  0.00  0.00    -0.532 OA
ATOM     31  O3   11 d          -6.817 207.084 120.309  0.00  0.00    -0.532 OA
ENDBRANCH  11  29
TORSDOF 7
ENDMDL
MODEL 10
REMARK VINA RESULT:      -7.8      3.426      8.555
REMARK  7 active torsions:
REMARK  status: ('A' for Active; 'I' for Inactive)
REMARK    1  A    between atoms: C3_3  and  N1_4 
REMARK    2  A    between atoms: N1_4  and  C4_5 
REMARK    3  A    between atoms: C4_5  and  C5_6 
REMARK    4  A    between atoms: C5_6  and  C6_7 
REMARK    5  A    between atoms: C6_7  and  C7_8 
REMARK    6  A    between atoms: C10_11  and  O1_12 
REMARK    7  A    between atoms: C21_24  and  N3_25 
ROOT
ATOM      1  C1   11 d         -11.658 207.623 114.840  0.00  0.00    -0.019 A 
ATOM      2  C2   11 d         -10.399 208.215 114.891  0.00  0.00     0.073 A 
ATOM      3  C3   11 d          -9.729 208.687 116.165  0.00  0.00     0.238 C 
ATOM      4  C15  11 d         -10.794 208.736 117.303  0.00  0.00     0.040 C 
ATOM      5  C16  11 d         -11.700 207.488 117.349  0.00  0.00     0.007 C 
ATOM      6  C17  11 d         -12.492 207.289 116.044  0.00  0.00     0.042 C 
ATOM      7  N2   11 d          -9.917 208.385 113.635  0.00  0.00    -0.250 NA
ATOM      8  C18  11 d         -10.828 207.848 112.793  0.00  0.00     0.068 A 
ATOM      9  C19  11 d         -11.898 207.349 113.510  0.00  0.00     0.003 A 
ATOM     10  C20  11 d         -12.983 206.727 112.883  0.00  0.00     0.050 A 
ATOM     11  C21  11 d         -12.978 206.602 111.465  0.00  0.00     0.103 A 
ATOM     12  C22  11 d         -11.870 207.136 110.740  0.00  0.00     0.038 A 
ATOM     13  C23  11 d         -10.790 207.759 111.399  0.00  0.00     0.035 A 
ENDROOT
BRANCH   3  14
ATOM     14  N1   11 d          -8.531 207.815 116.477  0.00  0.00    -0.061 N 
ATOM     15  H2   11 d          -8.845 206.807 116.665  0.00  0.00     0.278 HD
ATOM     16  H3   11 d          -7.912 207.765 115.601  0.00  0.00     0.278 HD
BRANCH  14  17
ATOM     17  C4   11 d          -7.641 208.278 117.606  0.00  0.00     0.183 C 
ATOM     18  C14  11 d          -7.633 207.298 118.799  0.00  0.00     0.040 C 
BRANCH  17  19
ATOM     19  C5   11 d          -6.188 208.506 117.100  0.00  0.00     0.037 C 
BRANCH  19  20
ATOM     20  C6   11 d          -5.532 207.267 116.458  0.00  0.00     0.040 C 
BRANCH  20  21
ATOM     21  C7   11 d          -5.075 207.528 115.040  0.00  0.00    -0.058 A 
ATOM     22  C8   11 d          -3.787 207.133 114.615  0.00  0.00     0.010 A 
ATOM     23  C9   11 d          -3.370 207.373 113.297  0.00  0.00     0.037 A 
ATOM     24  C10  11 d          -4.221 208.026 112.394  0.00  0.00     0.068 A 
ATOM     25  C12  11 d          -5.509 208.401 112.801  0.00  0.00     0.037 A 
ATOM     26  C13  11 d          -5.928 208.175 114.120  0.00  0.00     0.010 A 
BRANCH  24  27
ATOM     27  O1   11 d          -3.834 208.171 111.038  0.00  0.00    -0.356 OA
ATOM     28  C11  11 d          -2.478 208.679 110.968  0.00  0.00     0.210 C 
ENDBRANCH  24  27
ENDBRANCH  20  21
ENDBRANCH  19  20
ENDBRANCH  17  19
ENDBRANCH  14  17
ENDBRANCH   3  14
BRANCH  11  29
ATOM     29  N3   11 d         -14.037 205.982 110.797  0.00  0.00    -0.116 N 
ATOM     30  O2   11 d         -14.176 204.849 110.857  0.00  0.00    -0.532 OA
ATOM     31  O3   11 d         -14.722 206.620 109.951  0.00  0.00    -0.532 OA
ENDBRANCH  11  29
TORSDOF 7
ENDMDL
