MODEL 1
REMARK VINA RESULT:     -10.6      0.000      0.000
REMARK  5 active torsions:
REMARK  status: ('A' for Active; 'I' for Inactive)
REMARK    1  A    between atoms: C2_2  and  C3_3 
REMARK    2  A    between atoms: C10_12  and  C11_13 
REMARK    3  A    between atoms: C12_14  and  O1_15 
REMARK    4  A    between atoms: O1_15  and  C13_16 
REMARK    5  A    between atoms: C13_16  and  C14_17 
ROOT
ATOM      1  C1   11 d         -13.457 208.085 114.594  0.00  0.00     0.103 C 
ATOM      2  C2   11 d         -12.914 206.766 114.831  0.00  0.00     0.091 C 
ATOM      3  C10  11 d         -11.878 206.277 114.109  0.00  0.00     0.041 C 
ATOM      4  N3   11 d         -13.939 209.141 114.423  0.00  0.00    -0.191 NA
ENDROOT
BRANCH   2   5
ATOM      5  C3   11 d         -13.568 205.944 115.884  0.00  0.00     0.149 A 
ATOM      6  N1   11 d         -14.327 204.832 115.679  0.00  0.00    -0.338 N 
ATOM      7  C4   11 d         -14.705 204.372 116.883  0.00  0.00     0.062 A 
ATOM      8  H1   11 d         -14.574 204.409 114.748  0.00  0.00     0.167 HD
ATOM      9  C5   11 d         -14.179 205.216 117.839  0.00  0.00     0.086 A 
ATOM     10  C9   11 d         -15.480 203.257 117.235  0.00  0.00     0.032 A 
ATOM     11  C6   11 d         -14.395 205.004 119.205  0.00  0.00     0.034 A 
ATOM     12  N2   11 d         -13.480 206.185 117.221  0.00  0.00    -0.228 NA
ATOM     13  C7   11 d         -15.170 203.889 119.586  0.00  0.00     0.002 A 
ATOM     14  C8   11 d         -15.709 203.021 118.608  0.00  0.00     0.002 A 
ENDBRANCH   2   5
BRANCH   3  15
ATOM     15  C11  11 d         -11.120 207.036 113.076  0.00  0.00     0.010 A 
ATOM     16  C12  11 d         -11.474 206.873 111.715  0.00  0.00     0.080 A 
ATOM     17  C20  11 d         -10.842 207.658 110.733  0.00  0.00     0.038 A 
ATOM     18  C21  11 d          -9.851 208.579 111.081  0.00  0.00     0.015 A 
ATOM     19  C22  11 d          -9.486 208.752 112.427  0.00  0.00    -0.025 A 
ATOM     20  C23  11 d         -10.125 207.985 113.442  0.00  0.00    -0.013 A 
ATOM     21  C27  11 d          -8.495 209.694 112.770  0.00  0.00     0.012 A 
ATOM     22  C24  11 d          -9.744 208.194 114.790  0.00  0.00     0.013 A 
ATOM     23  C25  11 d          -8.759 209.137 115.117  0.00  0.00     0.001 A 
ATOM     24  C26  11 d          -8.136 209.884 114.110  0.00  0.00     0.001 A 
BRANCH  16  25
ATOM     25  O1   11 d         -12.515 205.956 111.371  0.00  0.00    -0.346 OA
BRANCH  25  26
ATOM     26  C13  11 d         -13.507 206.530 110.470  0.00  0.00     0.214 C 
BRANCH  26  27
ATOM     27  C14  11 d         -14.909 206.357 111.004  0.00  0.00    -0.034 A 
ATOM     28  C15  11 d         -15.121 205.576 112.161  0.00  0.00     0.009 A 
ATOM     29  C16  11 d         -16.405 205.448 112.711  0.00  0.00     0.001 A 
ATOM     30  C17  11 d         -17.488 206.123 112.131  0.00  0.00     0.000 A 
ATOM     31  C18  11 d         -17.285 206.935 111.007  0.00  0.00     0.001 A 
ATOM     32  C19  11 d         -16.002 207.061 110.453  0.00  0.00     0.009 A 
ENDBRANCH  26  27
ENDBRANCH  25  26
ENDBRANCH  16  25
ENDBRANCH   3  15
TORSDOF 5
ENDMDL
MODEL 2
REMARK VINA RESULT:     -10.4      2.220      6.046
REMARK  5 active torsions:
REMARK  status: ('A' for Active; 'I' for Inactive)
REMARK    1  A    between atoms: C2_2  and  C3_3 
REMARK    2  A    between atoms: C10_12  and  C11_13 
REMARK    3  A    between atoms: C12_14  and  O1_15 
REMARK    4  A    between atoms: O1_15  and  C13_16 
REMARK    5  A    between atoms: C13_16  and  C14_17 
ROOT
ATOM      1  C1   11 d         -13.145 208.496 114.889  0.00  0.00     0.103 C 
ATOM      2  C2   11 d         -12.276 207.342 114.919  0.00  0.00     0.091 C 
ATOM      3  C10  11 d         -12.149 206.511 113.857  0.00  0.00     0.041 C 
ATOM      4  N3   11 d         -13.852 209.432 114.913  0.00  0.00    -0.191 NA
ENDROOT
BRANCH   2   5
ATOM      5  C3   11 d         -11.547 207.076 116.188  0.00  0.00     0.149 A 
ATOM      6  N1   11 d         -10.296 207.513 116.503  0.00  0.00    -0.338 N 
ATOM      7  C4   11 d         -10.016 207.085 117.744  0.00  0.00     0.062 A 
ATOM      8  H1   11 d          -9.661 208.082 115.885  0.00  0.00     0.167 HD
ATOM      9  C5   11 d         -11.106 206.369 118.195  0.00  0.00     0.086 A 
ATOM     10  C9   11 d          -8.877 207.266 118.542  0.00  0.00     0.032 A 
ATOM     11  C6   11 d         -11.127 205.787 119.468  0.00  0.00     0.034 A 
ATOM     12  N2   11 d         -12.047 206.364 117.235  0.00  0.00    -0.228 NA
ATOM     13  C7   11 d          -9.993 205.956 120.290  0.00  0.00     0.002 A 
ATOM     14  C8   11 d          -8.876 206.691 119.830  0.00  0.00     0.002 A 
ENDBRANCH   2   5
BRANCH   3  15
ATOM     15  C11  11 d         -12.788 206.718 112.527  0.00  0.00     0.010 A 
ATOM     16  C12  11 d         -11.968 207.058 111.424  0.00  0.00     0.080 A 
ATOM     17  C20  11 d         -12.536 207.154 110.139  0.00  0.00     0.038 A 
ATOM     18  C21  11 d         -13.903 206.942 109.943  0.00  0.00     0.015 A 
ATOM     19  C22  11 d         -14.731 206.605 111.027  0.00  0.00    -0.025 A 
ATOM     20  C23  11 d         -14.177 206.481 112.333  0.00  0.00    -0.013 A 
ATOM     21  C27  11 d         -16.105 206.379 110.816  0.00  0.00     0.012 A 
ATOM     22  C24  11 d         -15.037 206.126 113.401  0.00  0.00     0.013 A 
ATOM     23  C25  11 d         -16.403 205.900 113.176  0.00  0.00     0.001 A 
ATOM     24  C26  11 d         -16.935 206.027 111.888  0.00  0.00     0.001 A 
BRANCH  16  25
ATOM     25  O1   11 d         -10.566 207.237 111.628  0.00  0.00    -0.346 OA
BRANCH  25  26
ATOM     26  C13  11 d         -10.155 208.636 111.573  0.00  0.00     0.214 C 
BRANCH  26  27
ATOM     27  C14  11 d          -8.964 208.900 112.462  0.00  0.00    -0.034 A 
ATOM     28  C15  11 d          -9.163 209.444 113.748  0.00  0.00     0.009 A 
ATOM     29  C16  11 d          -8.078 209.644 114.616  0.00  0.00     0.001 A 
ATOM     30  C17  11 d          -6.785 209.274 114.220  0.00  0.00     0.000 A 
ATOM     31  C18  11 d          -6.578 208.694 112.961  0.00  0.00     0.001 A 
ATOM     32  C19  11 d          -7.662 208.497 112.091  0.00  0.00     0.009 A 
ENDBRANCH  26  27
ENDBRANCH  25  26
ENDBRANCH  16  25
ENDBRANCH   3  15
TORSDOF 5
ENDMDL
MODEL 3
REMARK VINA RESULT:     -10.1      1.764      5.752
REMARK  5 active torsions:
REMARK  status: ('A' for Active; 'I' for Inactive)
REMARK    1  A    between atoms: C2_2  and  C3_3 
REMARK    2  A    between atoms: C10_12  and  C11_13 
REMARK    3  A    between atoms: C12_14  and  O1_15 
REMARK    4  A    between atoms: O1_15  and  C13_16 
REMARK    5  A    between atoms: C13_16  and  C14_17 
ROOT
ATOM      1  C1   11 d         -14.221 208.500 115.594  0.00  0.00     0.103 C 
ATOM      2  C2   11 d         -13.772 207.171 115.943  0.00  0.00     0.091 C 
ATOM      3  C10  11 d         -13.401 206.270 115.003  0.00  0.00     0.041 C 
ATOM      4  N3   11 d         -14.608 209.581 115.354  0.00  0.00    -0.191 NA
ENDROOT
BRANCH   2   5
ATOM      5  C3   11 d         -13.770 206.815 117.387  0.00  0.00     0.149 A 
ATOM      6  N1   11 d         -14.734 207.135 118.295  0.00  0.00    -0.338 N 
ATOM      7  C4   11 d         -14.371 206.606 119.475  0.00  0.00     0.062 A 
ATOM      8  H1   11 d         -15.604 207.696 118.108  0.00  0.00     0.167 HD
ATOM      9  C5   11 d         -13.167 205.960 119.292  0.00  0.00     0.086 A 
ATOM     10  C9   11 d         -15.008 206.631 120.724  0.00  0.00     0.032 A 
ATOM     11  C6   11 d         -12.520 205.300 120.343  0.00  0.00     0.034 A 
ATOM     12  N2   11 d         -12.798 206.090 118.005  0.00  0.00    -0.228 NA
ATOM     13  C7   11 d         -13.140 205.309 121.609  0.00  0.00     0.002 A 
ATOM     14  C8   11 d         -14.377 205.969 121.799  0.00  0.00     0.002 A 
ENDBRANCH   2   5
BRANCH   3  15
ATOM     15  C11  11 d         -13.312 206.543 113.541  0.00  0.00     0.010 A 
ATOM     16  C12  11 d         -12.044 206.814 112.975  0.00  0.00     0.080 A 
ATOM     17  C20  11 d         -11.923 206.971 111.581  0.00  0.00     0.038 A 
ATOM     18  C21  11 d         -13.044 206.886 110.752  0.00  0.00     0.015 A 
ATOM     19  C22  11 d         -14.311 206.619 111.297  0.00  0.00    -0.025 A 
ATOM     20  C23  11 d         -14.457 206.436 112.702  0.00  0.00    -0.013 A 
ATOM     21  C27  11 d         -15.433 206.522 110.451  0.00  0.00     0.012 A 
ATOM     22  C24  11 d         -15.745 206.154 113.218  0.00  0.00     0.013 A 
ATOM     23  C25  11 d         -16.852 206.057 112.363  0.00  0.00     0.001 A 
ATOM     24  C26  11 d         -16.697 206.240 110.984  0.00  0.00     0.001 A 
BRANCH  16  25
ATOM     25  O1   11 d         -10.897 206.862 113.827  0.00  0.00    -0.346 OA
BRANCH  25  26
ATOM     26  C13  11 d         -10.561 208.216 114.253  0.00  0.00     0.214 C 
BRANCH  26  27
ATOM     27  C14  11 d          -9.122 208.555 113.941  0.00  0.00    -0.034 A 
ATOM     28  C15  11 d          -8.607 208.282 112.656  0.00  0.00     0.009 A 
ATOM     29  C16  11 d          -7.292 208.641 112.323  0.00  0.00     0.001 A 
ATOM     30  C17  11 d          -6.486 209.305 113.259  0.00  0.00     0.000 A 
ATOM     31  C18  11 d          -6.999 209.618 114.524  0.00  0.00     0.001 A 
ATOM     32  C19  11 d          -8.312 209.257 114.861  0.00  0.00     0.009 A 
ENDBRANCH  26  27
ENDBRANCH  25  26
ENDBRANCH  16  25
ENDBRANCH   3  15
TORSDOF 5
ENDMDL
MODEL 4
REMARK VINA RESULT:      -9.5      2.581      5.660
REMARK  5 active torsions:
REMARK  status: ('A' for Active; 'I' for Inactive)
REMARK    1  A    between atoms: C2_2  and  C3_3 
REMARK    2  A    between atoms: C10_12  and  C11_13 
REMARK    3  A    between atoms: C12_14  and  O1_15 
REMARK    4  A    between atoms: O1_15  and  C13_16 
REMARK    5  A    between atoms: C13_16  and  C14_17 
ROOT
ATOM      1  C1   11 d         -13.948 207.911 115.648  0.00  0.00     0.103 C 
ATOM      2  C2   11 d         -13.203 206.726 116.006  0.00  0.00     0.091 C 
ATOM      3  C10  11 d         -11.933 206.522 115.581  0.00  0.00     0.041 C 
ATOM      4  N3   11 d         -14.594 208.850 115.368  0.00  0.00    -0.191 NA
ENDROOT
BRANCH   2   5
ATOM      5  C3   11 d         -13.904 205.710 116.835  0.00  0.00     0.149 A 
ATOM      6  N1   11 d         -14.062 205.747 118.188  0.00  0.00    -0.338 N 
ATOM      7  C4   11 d         -14.773 204.664 118.543  0.00  0.00     0.062 A 
ATOM      8  H1   11 d         -13.693 206.487 118.838  0.00  0.00     0.167 HD
ATOM      9  C5   11 d         -15.049 203.949 117.396  0.00  0.00     0.086 A 
ATOM     10  C9   11 d         -15.218 204.233 119.801  0.00  0.00     0.032 A 
ATOM     11  C6   11 d         -15.783 202.759 117.431  0.00  0.00     0.034 A 
ATOM     12  N2   11 d         -14.512 204.595 116.345  0.00  0.00    -0.228 NA
ATOM     13  C7   11 d         -16.243 202.304 118.684  0.00  0.00     0.002 A 
ATOM     14  C8   11 d         -15.963 203.036 119.861  0.00  0.00     0.002 A 
ENDBRANCH   2   5
BRANCH   3  15
ATOM     15  C11  11 d         -11.124 207.497 114.798  0.00  0.00     0.010 A 
ATOM     16  C12  11 d         -10.292 208.406 115.495  0.00  0.00     0.080 A 
ATOM     17  C20  11 d          -9.441 209.264 114.773  0.00  0.00     0.038 A 
ATOM     18  C21  11 d          -9.425 209.247 113.376  0.00  0.00     0.015 A 
ATOM     19  C22  11 d         -10.245 208.353 112.668  0.00  0.00    -0.025 A 
ATOM     20  C23  11 d         -11.100 207.459 113.376  0.00  0.00    -0.013 A 
ATOM     21  C27  11 d         -10.211 208.333 111.260  0.00  0.00     0.012 A 
ATOM     22  C24  11 d         -11.903 206.560 112.632  0.00  0.00     0.013 A 
ATOM     23  C25  11 d         -11.857 206.550 111.231  0.00  0.00     0.001 A 
ATOM     24  C26  11 d         -11.014 207.434 110.547  0.00  0.00     0.001 A 
BRANCH  16  25
ATOM     25  O1   11 d         -10.288 208.391 116.924  0.00  0.00    -0.346 OA
BRANCH  25  26
ATOM     26  C13  11 d          -9.042 207.881 117.485  0.00  0.00     0.214 C 
BRANCH  26  27
ATOM     27  C14  11 d          -9.286 207.084 118.744  0.00  0.00    -0.034 A 
ATOM     28  C15  11 d         -10.541 206.473 118.949  0.00  0.00     0.009 A 
ATOM     29  C16  11 d         -10.773 205.679 120.082  0.00  0.00     0.001 A 
ATOM     30  C17  11 d          -9.745 205.459 121.009  0.00  0.00     0.000 A 
ATOM     31  C18  11 d          -8.481 206.026 120.797  0.00  0.00     0.001 A 
ATOM     32  C19  11 d          -8.248 206.823 119.666  0.00  0.00     0.009 A 
ENDBRANCH  26  27
ENDBRANCH  25  26
ENDBRANCH  16  25
ENDBRANCH   3  15
TORSDOF 5
ENDMDL
MODEL 5
REMARK VINA RESULT:      -9.3      1.740      5.379
REMARK  5 active torsions:
REMARK  status: ('A' for Active; 'I' for Inactive)
REMARK    1  A    between atoms: C2_2  and  C3_3 
REMARK    2  A    between atoms: C10_12  and  C11_13 
REMARK    3  A    between atoms: C12_14  and  O1_15 
REMARK    4  A    between atoms: O1_15  and  C13_16 
REMARK    5  A    between atoms: C13_16  and  C14_17 
ROOT
ATOM      1  C1   11 d         -14.188 208.142 115.436  0.00  0.00     0.103 C 
ATOM      2  C2   11 d         -13.754 206.778 115.635  0.00  0.00     0.091 C 
ATOM      3  C10  11 d         -13.140 206.071 114.656  0.00  0.00     0.041 C 
ATOM      4  N3   11 d         -14.570 209.244 115.312  0.00  0.00    -0.191 NA
ENDROOT
BRANCH   2   5
ATOM      5  C3   11 d         -14.044 206.161 116.957  0.00  0.00     0.149 A 
ATOM      6  N1   11 d         -14.673 204.971 117.167  0.00  0.00    -0.338 N 
ATOM      7  C4   11 d         -14.712 204.763 118.494  0.00  0.00     0.062 A 
ATOM      8  H1   11 d         -15.060 204.331 116.427  0.00  0.00     0.167 HD
ATOM      9  C5   11 d         -14.108 205.841 119.106  0.00  0.00     0.086 A 
ATOM     10  C9   11 d         -15.234 203.695 119.238  0.00  0.00     0.032 A 
ATOM     11  C6   11 d         -13.987 205.924 120.497  0.00  0.00     0.034 A 
ATOM     12  N2   11 d         -13.697 206.702 118.157  0.00  0.00    -0.228 NA
ATOM     13  C7   11 d         -14.503 204.862 121.269  0.00  0.00     0.002 A 
ATOM     14  C8   11 d         -15.122 203.754 120.644  0.00  0.00     0.002 A 
ENDBRANCH   2   5
BRANCH   3  15
ATOM     15  C11  11 d         -12.754 206.610 113.322  0.00  0.00     0.010 A 
ATOM     16  C12  11 d         -11.423 207.050 113.126  0.00  0.00     0.080 A 
ATOM     17  C20  11 d         -11.009 207.465 111.846  0.00  0.00     0.038 A 
ATOM     18  C21  11 d         -11.902 207.470 110.772  0.00  0.00     0.015 A 
ATOM     19  C22  11 d         -13.228 207.038 110.949  0.00  0.00    -0.025 A 
ATOM     20  C23  11 d         -13.665 206.594 112.230  0.00  0.00    -0.013 A 
ATOM     21  C27  11 d         -14.117 207.033 109.857  0.00  0.00     0.012 A 
ATOM     22  C24  11 d         -15.003 206.151 112.371  0.00  0.00     0.013 A 
ATOM     23  C25  11 d         -15.876 206.149 111.274  0.00  0.00     0.001 A 
ATOM     24  C26  11 d         -15.435 206.589 110.021  0.00  0.00     0.001 A 
BRANCH  16  25
ATOM     25  O1   11 d         -10.507 207.007 114.222  0.00  0.00    -0.346 OA
BRANCH  25  26
ATOM     26  C13  11 d         -10.173 208.329 114.739  0.00  0.00     0.214 C 
BRANCH  26  27
ATOM     27  C14  11 d          -9.828 208.279 116.208  0.00  0.00    -0.034 A 
ATOM     28  C15  11 d          -8.476 208.200 116.603  0.00  0.00     0.009 A 
ATOM     29  C16  11 d          -8.126 208.212 117.962  0.00  0.00     0.001 A 
ATOM     30  C17  11 d          -9.121 208.334 118.942  0.00  0.00     0.000 A 
ATOM     31  C18  11 d         -10.465 208.456 118.563  0.00  0.00     0.001 A 
ATOM     32  C19  11 d         -10.816 208.440 117.205  0.00  0.00     0.009 A 
ENDBRANCH  26  27
ENDBRANCH  25  26
ENDBRANCH  16  25
ENDBRANCH   3  15
TORSDOF 5
ENDMDL
MODEL 6
REMARK VINA RESULT:      -9.2      2.576      7.722
REMARK  5 active torsions:
REMARK  status: ('A' for Active; 'I' for Inactive)
REMARK    1  A    between atoms: C2_2  and  C3_3 
REMARK    2  A    between atoms: C10_12  and  C11_13 
REMARK    3  A    between atoms: C12_14  and  O1_15 
REMARK    4  A    between atoms: O1_15  and  C13_16 
REMARK    5  A    between atoms: C13_16  and  C14_17 
ROOT
ATOM      1  C1   11 d         -12.361 208.907 114.735  0.00  0.00     0.103 C 
ATOM      2  C2   11 d         -11.476 207.891 114.212  0.00  0.00     0.091 C 
ATOM      3  C10  11 d         -11.908 206.640 113.926  0.00  0.00     0.041 C 
ATOM      4  N3   11 d         -13.042 209.755 115.176  0.00  0.00    -0.191 NA
ENDROOT
BRANCH   2   5
ATOM      5  C3   11 d         -10.047 208.266 114.035  0.00  0.00     0.149 A 
ATOM      6  N1   11 d          -9.235 207.874 113.014  0.00  0.00    -0.338 N 
ATOM      7  C4   11 d          -8.036 208.448 113.206  0.00  0.00     0.062 A 
ATOM      8  H1   11 d          -9.497 207.236 112.219  0.00  0.00     0.167 HD
ATOM      9  C5   11 d          -8.110 209.196 114.363  0.00  0.00     0.086 A 
ATOM     10  C9   11 d          -6.858 208.385 112.448  0.00  0.00     0.032 A 
ATOM     11  C6   11 d          -7.014 209.924 114.838  0.00  0.00     0.034 A 
ATOM     12  N2   11 d          -9.350 209.081 114.872  0.00  0.00    -0.228 NA
ATOM     13  C7   11 d          -5.818 209.877 114.094  0.00  0.00     0.002 A 
ATOM     14  C8   11 d          -5.739 209.113 112.906  0.00  0.00     0.002 A 
ENDBRANCH   2   5
BRANCH   3  15
ATOM     15  C11  11 d         -13.323 206.181 114.014  0.00  0.00     0.010 A 
ATOM     16  C12  11 d         -13.785 205.634 115.235  0.00  0.00     0.080 A 
ATOM     17  C20  11 d         -15.144 205.291 115.373  0.00  0.00     0.038 A 
ATOM     18  C21  11 d         -16.037 205.463 114.312  0.00  0.00     0.015 A 
ATOM     19  C22  11 d         -15.594 206.005 113.093  0.00  0.00    -0.025 A 
ATOM     20  C23  11 d         -14.229 206.378 112.935  0.00  0.00    -0.013 A 
ATOM     21  C27  11 d         -16.505 206.188 112.035  0.00  0.00     0.012 A 
ATOM     22  C24  11 d         -13.818 206.934 111.699  0.00  0.00     0.013 A 
ATOM     23  C25  11 d         -14.737 207.114 110.655  0.00  0.00     0.001 A 
ATOM     24  C26  11 d         -16.076 206.741 110.822  0.00  0.00     0.001 A 
BRANCH  16  25
ATOM     25  O1   11 d         -12.874 205.495 116.326  0.00  0.00    -0.346 OA
BRANCH  25  26
ATOM     26  C13  11 d         -13.044 206.525 117.345  0.00  0.00     0.214 C 
BRANCH  26  27
ATOM     27  C14  11 d         -11.747 206.813 118.065  0.00  0.00    -0.034 A 
ATOM     28  C15  11 d         -11.127 208.070 117.904  0.00  0.00     0.009 A 
ATOM     29  C16  11 d          -9.954 208.383 118.608  0.00  0.00     0.001 A 
ATOM     30  C17  11 d          -9.403 207.455 119.503  0.00  0.00     0.000 A 
ATOM     31  C18  11 d         -10.032 206.219 119.704  0.00  0.00     0.001 A 
ATOM     32  C19  11 d         -11.203 205.903 118.999  0.00  0.00     0.009 A 
ENDBRANCH  26  27
ENDBRANCH  25  26
ENDBRANCH  16  25
ENDBRANCH   3  15
TORSDOF 5
ENDMDL
MODEL 7
REMARK VINA RESULT:      -9.2      2.604      6.103
REMARK  5 active torsions:
REMARK  status: ('A' for Active; 'I' for Inactive)
REMARK    1  A    between atoms: C2_2  and  C3_3 
REMARK    2  A    between atoms: C10_12  and  C11_13 
REMARK    3  A    between atoms: C12_14  and  O1_15 
REMARK    4  A    between atoms: O1_15  and  C13_16 
REMARK    5  A    between atoms: C13_16  and  C14_17 
ROOT
ATOM      1  C1   11 d         -13.740 208.033 115.528  0.00  0.00     0.103 C 
ATOM      2  C2   11 d         -13.030 206.835 115.916  0.00  0.00     0.091 C 
ATOM      3  C10  11 d         -11.750 206.605 115.536  0.00  0.00     0.041 C 
ATOM      4  N3   11 d         -14.358 208.982 115.222  0.00  0.00    -0.191 NA
ENDROOT
BRANCH   2   5
ATOM      5  C3   11 d         -13.780 205.836 116.723  0.00  0.00     0.149 A 
ATOM      6  N1   11 d         -14.453 204.754 116.240  0.00  0.00    -0.338 N 
ATOM      7  C4   11 d         -14.966 204.093 117.291  0.00  0.00     0.062 A 
ATOM      8  H1   11 d         -14.555 204.485 115.228  0.00  0.00     0.167 HD
ATOM      9  C5   11 d         -14.610 204.781 118.432  0.00  0.00     0.086 A 
ATOM     10  C9   11 d         -15.729 202.918 117.350  0.00  0.00     0.032 A 
ATOM     11  C6   11 d         -14.995 204.342 119.704  0.00  0.00     0.034 A 
ATOM     12  N2   11 d         -13.880 205.854 118.080  0.00  0.00    -0.228 NA
ATOM     13  C7   11 d         -15.762 203.162 119.791  0.00  0.00     0.002 A 
ATOM     14  C8   11 d         -16.126 202.454 118.622  0.00  0.00     0.002 A 
ENDBRANCH   2   5
BRANCH   3  15
ATOM     15  C11  11 d         -10.896 207.562 114.779  0.00  0.00     0.010 A 
ATOM     16  C12  11 d         -10.007 208.396 115.498  0.00  0.00     0.080 A 
ATOM     17  C20  11 d          -9.117 209.232 114.798  0.00  0.00     0.038 A 
ATOM     18  C21  11 d          -9.116 209.266 113.401  0.00  0.00     0.015 A 
ATOM     19  C22  11 d          -9.992 208.445 112.671  0.00  0.00    -0.025 A 
ATOM     20  C23  11 d         -10.889 207.575 113.357  0.00  0.00    -0.013 A 
ATOM     21  C27  11 d          -9.974 208.475 111.263  0.00  0.00     0.012 A 
ATOM     22  C24  11 d         -11.749 206.750 112.591  0.00  0.00     0.013 A 
ATOM     23  C25  11 d         -11.717 206.789 111.190  0.00  0.00     0.001 A 
ATOM     24  C26  11 d         -10.833 207.649 110.528  0.00  0.00     0.001 A 
BRANCH  16  25
ATOM     25  O1   11 d          -9.989 208.329 116.926  0.00  0.00    -0.346 OA
BRANCH  25  26
ATOM     26  C13  11 d          -8.790 207.686 117.451  0.00  0.00     0.214 C 
BRANCH  26  27
ATOM     27  C14  11 d          -8.234 208.436 118.638  0.00  0.00    -0.034 A 
ATOM     28  C15  11 d          -6.864 208.772 118.669  0.00  0.00     0.009 A 
ATOM     29  C16  11 d          -6.335 209.519 119.733  0.00  0.00     0.001 A 
ATOM     30  C17  11 d          -7.175 209.966 120.763  0.00  0.00     0.000 A 
ATOM     31  C18  11 d          -8.545 209.675 120.724  0.00  0.00     0.001 A 
ATOM     32  C19  11 d          -9.074 208.925 119.663  0.00  0.00     0.009 A 
ENDBRANCH  26  27
ENDBRANCH  25  26
ENDBRANCH  16  25
ENDBRANCH   3  15
TORSDOF 5
ENDMDL
MODEL 8
REMARK VINA RESULT:      -9.0      1.659      6.692
REMARK  5 active torsions:
REMARK  status: ('A' for Active; 'I' for Inactive)
REMARK    1  A    between atoms: C2_2  and  C3_3 
REMARK    2  A    between atoms: C10_12  and  C11_13 
REMARK    3  A    between atoms: C12_14  and  O1_15 
REMARK    4  A    between atoms: O1_15  and  C13_16 
REMARK    5  A    between atoms: C13_16  and  C14_17 
ROOT
ATOM      1  C1   11 d         -13.567 208.164 115.561  0.00  0.00     0.103 C 
ATOM      2  C2   11 d         -12.374 207.347 115.585  0.00  0.00     0.091 C 
ATOM      3  C10  11 d         -12.341 206.144 116.207  0.00  0.00     0.041 C 
ATOM      4  N3   11 d         -14.507 208.865 115.532  0.00  0.00    -0.191 NA
ENDROOT
BRANCH   2   5
ATOM      5  C3   11 d         -11.161 207.902 114.927  0.00  0.00     0.149 A 
ATOM      6  N1   11 d         -10.157 208.587 115.540  0.00  0.00    -0.338 N 
ATOM      7  C4   11 d          -9.240 208.887 114.606  0.00  0.00     0.062 A 
ATOM      8  H1   11 d         -10.107 208.839 116.561  0.00  0.00     0.167 HD
ATOM      9  C5   11 d          -9.690 208.386 113.402  0.00  0.00     0.086 A 
ATOM     10  C9   11 d          -8.018 209.567 114.706  0.00  0.00     0.032 A 
ATOM     11  C6   11 d          -8.952 208.534 112.222  0.00  0.00     0.034 A 
ATOM     12  N2   11 d         -10.874 207.780 113.602  0.00  0.00    -0.228 NA
ATOM     13  C7   11 d          -7.719 209.214 112.297  0.00  0.00     0.002 A 
ATOM     14  C8   11 d          -7.254 209.727 113.530  0.00  0.00     0.002 A 
ENDBRANCH   2   5
BRANCH   3  15
ATOM     15  C11  11 d         -13.511 205.476 116.843  0.00  0.00     0.010 A 
ATOM     16  C12  11 d         -14.490 204.883 116.012  0.00  0.00     0.080 A 
ATOM     17  C20  11 d         -15.547 204.156 116.592  0.00  0.00     0.038 A 
ATOM     18  C21  11 d         -15.655 204.034 117.980  0.00  0.00     0.015 A 
ATOM     19  C22  11 d         -14.692 204.618 118.820  0.00  0.00    -0.025 A 
ATOM     20  C23  11 d         -13.601 205.340 118.256  0.00  0.00    -0.013 A 
ATOM     21  C27  11 d         -14.801 204.477 120.217  0.00  0.00     0.012 A 
ATOM     22  C24  11 d         -12.640 205.904 119.131  0.00  0.00     0.013 A 
ATOM     23  C25  11 d         -12.760 205.753 120.519  0.00  0.00     0.001 A 
ATOM     24  C26  11 d         -13.836 205.042 121.061  0.00  0.00     0.001 A 
BRANCH  16  25
ATOM     25  O1   11 d         -14.353 204.982 114.593  0.00  0.00    -0.346 OA
BRANCH  25  26
ATOM     26  C13  11 d         -15.463 205.685 113.960  0.00  0.00     0.214 C 
BRANCH  26  27
ATOM     27  C14  11 d         -15.087 206.196 112.590  0.00  0.00    -0.034 A 
ATOM     28  C15  11 d         -13.726 206.276 112.226  0.00  0.00     0.009 A 
ATOM     29  C16  11 d         -13.353 206.692 110.939  0.00  0.00     0.001 A 
ATOM     30  C17  11 d         -14.336 207.004 109.989  0.00  0.00     0.000 A 
ATOM     31  C18  11 d         -15.692 206.889 110.324  0.00  0.00     0.001 A 
ATOM     32  C19  11 d         -16.067 206.476 111.611  0.00  0.00     0.009 A 
ENDBRANCH  26  27
ENDBRANCH  25  26
ENDBRANCH  16  25
ENDBRANCH   3  15
TORSDOF 5
ENDMDL
MODEL 9
REMARK VINA RESULT:      -8.8      5.220      8.423
REMARK  5 active torsions:
REMARK  status: ('A' for Active; 'I' for Inactive)
REMARK    1  A    between atoms: C2_2  and  C3_3 
REMARK    2  A    between atoms: C10_12  and  C11_13 
REMARK    3  A    between atoms: C12_14  and  O1_15 
REMARK    4  A    between atoms: O1_15  and  C13_16 
REMARK    5  A    between atoms: C13_16  and  C14_17 
ROOT
ATOM      1  C1   11 d          -5.376 207.989 116.529  0.00  0.00     0.103 C 
ATOM      2  C2   11 d          -5.432 209.430 116.436  0.00  0.00     0.091 C 
ATOM      3  C10  11 d          -5.671 210.064 115.263  0.00  0.00     0.041 C 
ATOM      4  N3   11 d          -5.305 206.823 116.646  0.00  0.00    -0.191 NA
ENDROOT
BRANCH   2   5
ATOM      5  C3   11 d          -5.178 210.199 117.683  0.00  0.00     0.149 A 
ATOM      6  N1   11 d          -6.091 210.942 118.369  0.00  0.00    -0.338 N 
ATOM      7  C4   11 d          -5.472 211.450 119.447  0.00  0.00     0.062 A 
ATOM      8  H1   11 d          -7.097 211.095 118.102  0.00  0.00     0.167 HD
ATOM      9  C5   11 d          -4.162 211.020 119.420  0.00  0.00     0.086 A 
ATOM     10  C9   11 d          -5.954 212.269 120.479  0.00  0.00     0.032 A 
ATOM     11  C6   11 d          -3.250 211.380 120.418  0.00  0.00     0.034 A 
ATOM     12  N2   11 d          -3.983 210.250 118.332  0.00  0.00    -0.228 NA
ATOM     13  C7   11 d          -3.710 212.202 121.468  0.00  0.00     0.002 A 
ATOM     14  C8   11 d          -5.053 212.643 121.499  0.00  0.00     0.002 A 
ENDBRANCH   2   5
BRANCH   3  15
ATOM     15  C11  11 d          -5.993 209.390 113.974  0.00  0.00     0.010 A 
ATOM     16  C12  11 d          -7.345 209.319 113.563  0.00  0.00     0.080 A 
ATOM     17  C20  11 d          -7.661 208.781 112.301  0.00  0.00     0.038 A 
ATOM     18  C21  11 d          -6.658 208.293 111.459  0.00  0.00     0.015 A 
ATOM     19  C22  11 d          -5.311 208.355 111.853  0.00  0.00    -0.025 A 
ATOM     20  C23  11 d          -4.963 208.914 113.116  0.00  0.00    -0.013 A 
ATOM     21  C27  11 d          -4.305 207.874 110.991  0.00  0.00     0.012 A 
ATOM     22  C24  11 d          -3.594 208.974 113.475  0.00  0.00     0.013 A 
ATOM     23  C25  11 d          -2.604 208.494 112.606  0.00  0.00     0.001 A 
ATOM     24  C26  11 d          -2.958 207.946 111.368  0.00  0.00     0.001 A 
BRANCH  16  25
ATOM     25  O1   11 d          -8.361 209.853 114.414  0.00  0.00    -0.346 OA
BRANCH  25  26
ATOM     26  C13  11 d          -9.018 208.835 115.225  0.00  0.00     0.214 C 
BRANCH  26  27
ATOM     27  C14  11 d         -10.390 208.499 114.689  0.00  0.00    -0.034 A 
ATOM     28  C15  11 d         -10.508 207.712 113.524  0.00  0.00     0.009 A 
ATOM     29  C16  11 d         -11.770 207.338 113.039  0.00  0.00     0.001 A 
ATOM     30  C17  11 d         -12.929 207.717 113.730  0.00  0.00     0.000 A 
ATOM     31  C18  11 d         -12.825 208.463 114.912  0.00  0.00     0.001 A 
ATOM     32  C19  11 d         -11.564 208.842 115.396  0.00  0.00     0.009 A 
ENDBRANCH  26  27
ENDBRANCH  25  26
ENDBRANCH  16  25
ENDBRANCH   3  15
TORSDOF 5
ENDMDL
MODEL 10
REMARK VINA RESULT:      -8.6      5.695     10.023
REMARK  5 active torsions:
REMARK  status: ('A' for Active; 'I' for Inactive)
REMARK    1  A    between atoms: C2_2  and  C3_3 
REMARK    2  A    between atoms: C10_12  and  C11_13 
REMARK    3  A    between atoms: C12_14  and  O1_15 
REMARK    4  A    between atoms: O1_15  and  C13_16 
REMARK    5  A    between atoms: C13_16  and  C14_17 
ROOT
ATOM      1  C1   11 d          -5.543 208.008 116.198  0.00  0.00     0.103 C 
ATOM      2  C2   11 d          -5.866 209.411 116.328  0.00  0.00     0.091 C 
ATOM      3  C10  11 d          -6.588 210.071 115.391  0.00  0.00     0.041 C 
ATOM      4  N3   11 d          -5.244 206.876 116.124  0.00  0.00    -0.191 NA
ENDROOT
BRANCH   2   5
ATOM      5  C3   11 d          -5.338 210.119 117.525  0.00  0.00     0.149 A 
ATOM      6  N1   11 d          -6.035 210.969 118.328  0.00  0.00    -0.338 N 
ATOM      7  C4   11 d          -5.208 211.372 119.308  0.00  0.00     0.062 A 
ATOM      8  H1   11 d          -7.038 211.261 118.205  0.00  0.00     0.167 HD
ATOM      9  C5   11 d          -3.986 210.767 119.099  0.00  0.00     0.086 A 
ATOM     10  C9   11 d          -5.425 212.232 120.394  0.00  0.00     0.032 A 
ATOM     11  C6   11 d          -2.903 210.984 119.958  0.00  0.00     0.034 A 
ATOM     12  N2   11 d          -4.068 209.996 118.000  0.00  0.00    -0.228 NA
ATOM     13  C7   11 d          -3.095 211.844 121.058  0.00  0.00     0.002 A 
ATOM     14  C8   11 d          -4.348 212.464 121.275  0.00  0.00     0.002 A 
ENDBRANCH   2   5
BRANCH   3  15
ATOM     15  C11  11 d          -7.209 209.445 114.191  0.00  0.00     0.010 A 
ATOM     16  C12  11 d          -6.397 209.186 113.061  0.00  0.00     0.080 A 
ATOM     17  C20  11 d          -6.938 208.501 111.957  0.00  0.00     0.038 A 
ATOM     18  C21  11 d          -8.274 208.094 111.952  0.00  0.00     0.015 A 
ATOM     19  C22  11 d          -9.096 208.343 113.065  0.00  0.00    -0.025 A 
ATOM     20  C23  11 d          -8.566 209.017 114.203  0.00  0.00    -0.013 A 
ATOM     21  C27  11 d         -10.438 207.916 113.056  0.00  0.00     0.012 A 
ATOM     22  C24  11 d          -9.417 209.239 115.313  0.00  0.00     0.013 A 
ATOM     23  C25  11 d         -10.750 208.805 115.292  0.00  0.00     0.001 A 
ATOM     24  C26  11 d         -11.259 208.146 114.167  0.00  0.00     0.001 A 
BRANCH  16  25
ATOM     25  O1   11 d          -5.022 209.574 113.089  0.00  0.00    -0.346 OA
BRANCH  25  26
ATOM     26  C13  11 d          -4.108 208.446 112.944  0.00  0.00     0.214 C 
BRANCH  26  27
ATOM     27  C14  11 d          -3.280 208.561 111.686  0.00  0.00    -0.034 A 
ATOM     28  C15  11 d          -1.948 209.020 111.770  0.00  0.00     0.009 A 
ATOM     29  C16  11 d          -1.139 209.080 110.625  0.00  0.00     0.001 A 
ATOM     30  C17  11 d          -1.641 208.654 109.388  0.00  0.00     0.000 A 
ATOM     31  C18  11 d          -2.948 208.157 109.297  0.00  0.00     0.001 A 
ATOM     32  C19  11 d          -3.760 208.099 110.441  0.00  0.00     0.009 A 
ENDBRANCH  26  27
ENDBRANCH  25  26
ENDBRANCH  16  25
ENDBRANCH   3  15
TORSDOF 5
ENDMDL
