MODEL 1
REMARK VINA RESULT:      -7.8      0.000      0.000
REMARK  3 active torsions:
REMARK  status: ('A' for Active; 'I' for Inactive)
REMARK    1  A    between atoms: C1_1  and  C2_2 
REMARK       I    between atoms: C1_1  and  N1_10 
REMARK    2  A    between atoms: C3_3  and  O1_8 
REMARK    3  A    between atoms: N1_10  and  N2_11 
ROOT
ATOM      1  C1   11 d         -11.663 207.661 113.455  0.00  0.00     0.274 C 
ATOM      2  O2   11 d         -12.584 208.189 114.177  0.00  0.00    -0.266 OA
ATOM      3  N1   11 d         -11.957 206.486 112.702  0.00  0.00    -0.243 N 
ATOM      4  H6   11 d         -11.209 206.022 112.086  0.00  0.00     0.192 HD
ENDROOT
BRANCH   1   5
ATOM      5  C2   11 d         -10.309 208.284 113.423  0.00  0.00     0.066 A 
ATOM      6  C3   11 d          -9.754 208.888 114.579  0.00  0.00     0.081 A 
ATOM      7  C4   11 d          -8.483 209.483 114.521  0.00  0.00     0.037 A 
ATOM      8  C5   11 d          -7.736 209.451 113.337  0.00  0.00     0.003 A 
ATOM      9  C6   11 d          -8.265 208.836 112.195  0.00  0.00     0.001 A 
ATOM     10  C7   11 d          -9.542 208.258 112.235  0.00  0.00     0.020 A 
BRANCH   6  11
ATOM     11  O1   11 d         -10.506 209.045 115.766  0.00  0.00    -0.360 OA
ATOM     12  H5   11 d         -10.022 208.473 116.481  0.00  0.00     0.217 HD
ENDBRANCH   6  11
ENDBRANCH   1   5
BRANCH   3  13
ATOM     13  N2   11 d         -13.251 205.952 112.786  0.00  0.00    -0.181 NA
ATOM     14  C8   11 d         -14.106 206.135 111.804  0.00  0.00     0.032 C 
ATOM     15  C9   11 d         -13.912 206.988 110.585  0.00  0.00     0.056 C 
ATOM     16  C12  11 d         -15.508 205.647 111.922  0.00  0.00     0.056 C 
ATOM     17  C10  11 d         -15.289 206.971 109.927  0.00  0.00     0.006 C 
ATOM     18  C11  11 d         -16.262 206.640 111.051  0.00  0.00     0.006 C 
ENDBRANCH   3  13
TORSDOF 3
ENDMDL
MODEL 2
REMARK VINA RESULT:      -7.6      1.010      1.726
REMARK  3 active torsions:
REMARK  status: ('A' for Active; 'I' for Inactive)
REMARK    1  A    between atoms: C1_1  and  C2_2 
REMARK       I    between atoms: C1_1  and  N1_10 
REMARK    2  A    between atoms: C3_3  and  O1_8 
REMARK    3  A    between atoms: N1_10  and  N2_11 
ROOT
ATOM      1  C1   11 d         -11.865 207.635 113.429  0.00  0.00     0.274 C 
ATOM      2  O2   11 d         -12.841 208.159 114.077  0.00  0.00    -0.266 OA
ATOM      3  N1   11 d         -12.079 206.424 112.707  0.00  0.00    -0.243 N 
ATOM      4  H6   11 d         -11.283 205.962 112.153  0.00  0.00     0.192 HD
ENDROOT
BRANCH   1   5
ATOM      5  C2   11 d         -10.530 208.300 113.449  0.00  0.00     0.066 A 
ATOM      6  C3   11 d          -9.841 208.592 112.245  0.00  0.00     0.081 A 
ATOM      7  C4   11 d          -8.578 209.205 112.288  0.00  0.00     0.037 A 
ATOM      8  C5   11 d          -8.006 209.571 113.513  0.00  0.00     0.003 A 
ATOM      9  C6   11 d          -8.689 209.309 114.707  0.00  0.00     0.001 A 
ATOM     10  C7   11 d          -9.941 208.678 114.677  0.00  0.00     0.020 A 
BRANCH   6  11
ATOM     11  O1   11 d         -10.320 208.147 110.991  0.00  0.00    -0.360 OA
ATOM     12  H5   11 d         -10.904 207.315 111.195  0.00  0.00     0.217 HD
ENDBRANCH   6  11
ENDBRANCH   1   5
BRANCH   3  13
ATOM     13  N2   11 d         -13.359 205.852 112.739  0.00  0.00    -0.181 NA
ATOM     14  C8   11 d         -14.208 206.081 111.763  0.00  0.00     0.032 C 
ATOM     15  C9   11 d         -14.026 207.022 110.608  0.00  0.00     0.056 C 
ATOM     16  C12  11 d         -15.598 205.548 111.830  0.00  0.00     0.056 C 
ATOM     17  C10  11 d         -15.396 207.015 109.935  0.00  0.00     0.006 C 
ATOM     18  C11  11 d         -16.370 206.581 111.022  0.00  0.00     0.006 C 
ENDBRANCH   3  13
TORSDOF 3
ENDMDL
MODEL 3
REMARK VINA RESULT:      -7.5      1.528      6.294
REMARK  3 active torsions:
REMARK  status: ('A' for Active; 'I' for Inactive)
REMARK    1  A    between atoms: C1_1  and  C2_2 
REMARK       I    between atoms: C1_1  and  N1_10 
REMARK    2  A    between atoms: C3_3  and  O1_8 
REMARK    3  A    between atoms: N1_10  and  N2_11 
ROOT
ATOM      1  C1   11 d         -13.409 207.813 113.728  0.00  0.00     0.274 C 
ATOM      2  O2   11 d         -13.664 208.588 114.719  0.00  0.00    -0.266 OA
ATOM      3  N1   11 d         -12.051 207.526 113.401  0.00  0.00    -0.243 N 
ATOM      4  H6   11 d         -11.804 206.878 112.580  0.00  0.00     0.192 HD
ENDROOT
BRANCH   1   5
ATOM      5  C2   11 d         -14.535 207.232 112.942  0.00  0.00     0.066 A 
ATOM      6  C3   11 d         -15.577 206.513 113.579  0.00  0.00     0.081 A 
ATOM      7  C4   11 d         -16.620 205.962 112.816  0.00  0.00     0.037 A 
ATOM      8  C5   11 d         -16.663 206.150 111.429  0.00  0.00     0.003 A 
ATOM      9  C6   11 d         -15.651 206.880 110.792  0.00  0.00     0.001 A 
ATOM     10  C7   11 d         -14.594 207.416 111.541  0.00  0.00     0.020 A 
BRANCH   6  11
ATOM     11  O1   11 d         -15.526 206.200 114.957  0.00  0.00    -0.360 OA
ATOM     12  H5   11 d         -16.495 205.948 115.222  0.00  0.00     0.217 HD
ENDBRANCH   6  11
ENDBRANCH   1   5
BRANCH   3  13
ATOM     13  N2   11 d         -11.043 208.112 114.181  0.00  0.00    -0.181 NA
ATOM     14  C8   11 d          -9.932 208.530 113.619  0.00  0.00     0.032 C 
ATOM     15  C9   11 d          -9.520 208.349 112.188  0.00  0.00     0.056 C 
ATOM     16  C12  11 d          -8.823 209.075 114.451  0.00  0.00     0.056 C 
ATOM     17  C10  11 d          -8.079 208.852 112.175  0.00  0.00     0.006 C 
ATOM     18  C11  11 d          -7.601 208.724 113.615  0.00  0.00     0.006 C 
ENDBRANCH   3  13
TORSDOF 3
ENDMDL
MODEL 4
REMARK VINA RESULT:      -7.3      1.708      6.443
REMARK  3 active torsions:
REMARK  status: ('A' for Active; 'I' for Inactive)
REMARK    1  A    between atoms: C1_1  and  C2_2 
REMARK       I    between atoms: C1_1  and  N1_10 
REMARK    2  A    between atoms: C3_3  and  O1_8 
REMARK    3  A    between atoms: N1_10  and  N2_11 
ROOT
ATOM      1  C1   11 d         -12.674 207.059 111.344  0.00  0.00     0.274 C 
ATOM      2  O2   11 d         -12.241 207.038 110.136  0.00  0.00    -0.266 OA
ATOM      3  N1   11 d         -11.780 207.414 112.398  0.00  0.00    -0.243 N 
ATOM      4  H6   11 d         -12.112 207.444 113.418  0.00  0.00     0.192 HD
ENDROOT
BRANCH   1   5
ATOM      5  C2   11 d         -14.097 206.711 111.620  0.00  0.00     0.066 A 
ATOM      6  C3   11 d         -14.482 206.133 112.856  0.00  0.00     0.081 A 
ATOM      7  C4   11 d         -15.826 205.798 113.087  0.00  0.00     0.037 A 
ATOM      8  C5   11 d         -16.804 206.069 112.121  0.00  0.00     0.003 A 
ATOM      9  C6   11 d         -16.438 206.662 110.907  0.00  0.00     0.001 A 
ATOM     10  C7   11 d         -15.096 206.981 110.656  0.00  0.00     0.020 A 
BRANCH   6  11
ATOM     11  O1   11 d         -13.525 205.738 113.818  0.00  0.00    -0.360 OA
ATOM     12  H5   11 d         -14.050 205.200 114.531  0.00  0.00     0.217 HD
ENDBRANCH   6  11
ENDBRANCH   1   5
BRANCH   3  13
ATOM     13  N2   11 d         -10.453 207.724 112.063  0.00  0.00    -0.181 NA
ATOM     14  C8   11 d          -9.629 208.171 112.984  0.00  0.00     0.032 C 
ATOM     15  C9   11 d          -9.964 208.527 114.402  0.00  0.00     0.056 C 
ATOM     16  C12  11 d          -8.244 208.584 112.621  0.00  0.00     0.056 C 
ATOM     17  C10  11 d          -8.675 209.165 114.915  0.00  0.00     0.006 C 
ATOM     18  C11  11 d          -7.949 209.649 113.666  0.00  0.00     0.006 C 
ENDBRANCH   3  13
TORSDOF 3
ENDMDL
MODEL 5
REMARK VINA RESULT:      -7.1      1.594      6.349
REMARK  3 active torsions:
REMARK  status: ('A' for Active; 'I' for Inactive)
REMARK    1  A    between atoms: C1_1  and  C2_2 
REMARK       I    between atoms: C1_1  and  N1_10 
REMARK    2  A    between atoms: C3_3  and  O1_8 
REMARK    3  A    between atoms: N1_10  and  N2_11 
ROOT
ATOM      1  C1   11 d         -12.596 206.830 113.511  0.00  0.00     0.274 C 
ATOM      2  O2   11 d         -12.138 205.917 114.288  0.00  0.00    -0.266 OA
ATOM      3  N1   11 d         -11.908 208.075 113.417  0.00  0.00    -0.243 N 
ATOM      4  H6   11 d         -12.264 208.857 112.773  0.00  0.00     0.192 HD
ENDROOT
BRANCH   1   5
ATOM      5  C2   11 d         -13.838 206.569 112.727  0.00  0.00     0.066 A 
ATOM      6  C3   11 d         -13.833 206.624 111.310  0.00  0.00     0.081 A 
ATOM      7  C4   11 d         -15.018 206.391 110.594  0.00  0.00     0.037 A 
ATOM      8  C5   11 d         -16.203 206.063 111.265  0.00  0.00     0.003 A 
ATOM      9  C6   11 d         -16.213 205.982 112.663  0.00  0.00     0.001 A 
ATOM     10  C7   11 d         -15.041 206.234 113.390  0.00  0.00     0.020 A 
BRANCH   6  11
ATOM     11  O1   11 d         -12.696 207.057 110.590  0.00  0.00    -0.360 OA
ATOM     12  H5   11 d         -12.888 206.823 109.600  0.00  0.00     0.217 HD
ENDBRANCH   6  11
ENDBRANCH   1   5
BRANCH   3  13
ATOM     13  N2   11 d         -10.749 208.250 114.188  0.00  0.00    -0.181 NA
ATOM     14  C8   11 d          -9.626 208.623 113.616  0.00  0.00     0.032 C 
ATOM     15  C9   11 d          -9.370 208.782 112.146  0.00  0.00     0.056 C 
ATOM     16  C12  11 d          -8.372 208.728 114.412  0.00  0.00     0.056 C 
ATOM     17  C10  11 d          -7.865 209.029 112.081  0.00  0.00     0.006 C 
ATOM     18  C11  11 d          -7.308 208.430 113.366  0.00  0.00     0.006 C 
ENDBRANCH   3  13
TORSDOF 3
ENDMDL
MODEL 6
REMARK VINA RESULT:      -7.0      3.088      7.071
REMARK  3 active torsions:
REMARK  status: ('A' for Active; 'I' for Inactive)
REMARK    1  A    between atoms: C1_1  and  C2_2 
REMARK       I    between atoms: C1_1  and  N1_10 
REMARK    2  A    between atoms: C3_3  and  O1_8 
REMARK    3  A    between atoms: N1_10  and  N2_11 
ROOT
ATOM      1  C1   11 d          -8.685 208.922 112.696  0.00  0.00     0.274 C 
ATOM      2  O2   11 d          -7.610 208.973 111.997  0.00  0.00    -0.266 OA
ATOM      3  N1   11 d          -8.728 209.588 113.957  0.00  0.00    -0.243 N 
ATOM      4  H6   11 d          -9.613 209.567 114.565  0.00  0.00     0.192 HD
ENDROOT
BRANCH   1   5
ATOM      5  C2   11 d          -9.863 208.169 112.178  0.00  0.00     0.066 A 
ATOM      6  C3   11 d         -10.711 207.445 113.053  0.00  0.00     0.081 A 
ATOM      7  C4   11 d         -11.805 206.729 112.540  0.00  0.00     0.037 A 
ATOM      8  C5   11 d         -12.094 206.756 111.170  0.00  0.00     0.003 A 
ATOM      9  C6   11 d         -11.277 207.488 110.300  0.00  0.00     0.001 A 
ATOM     10  C7   11 d         -10.169 208.188 110.798  0.00  0.00     0.020 A 
BRANCH   6  11
ATOM     11  O1   11 d         -10.403 207.294 114.425  0.00  0.00    -0.360 OA
ATOM     12  H5   11 d         -10.892 208.070 114.907  0.00  0.00     0.217 HD
ENDBRANCH   6  11
ENDBRANCH   1   5
BRANCH   3  13
ATOM     13  N2   11 d          -7.580 210.272 114.383  0.00  0.00    -0.181 NA
ATOM     14  C8   11 d          -6.841 209.782 115.353  0.00  0.00     0.032 C 
ATOM     15  C9   11 d          -7.141 208.577 116.197  0.00  0.00     0.056 C 
ATOM     16  C12  11 d          -5.670 210.543 115.870  0.00  0.00     0.056 C 
ATOM     17  C10  11 d          -6.050 208.620 117.264  0.00  0.00     0.006 C 
ATOM     18  C11  11 d          -5.604 210.076 117.317  0.00  0.00     0.006 C 
ENDBRANCH   3  13
TORSDOF 3
ENDMDL
MODEL 7
REMARK VINA RESULT:      -7.0      2.929      3.731
REMARK  3 active torsions:
REMARK  status: ('A' for Active; 'I' for Inactive)
REMARK    1  A    between atoms: C1_1  and  C2_2 
REMARK       I    between atoms: C1_1  and  N1_10 
REMARK    2  A    between atoms: C3_3  and  O1_8 
REMARK    3  A    between atoms: N1_10  and  N2_11 
ROOT
ATOM      1  C1   11 d         -13.936 207.956 115.115  0.00  0.00     0.274 C 
ATOM      2  O2   11 d         -14.065 209.063 114.477  0.00  0.00    -0.266 OA
ATOM      3  N1   11 d         -14.794 206.863 114.794  0.00  0.00    -0.243 N 
ATOM      4  H6   11 d         -14.709 205.924 115.307  0.00  0.00     0.192 HD
ENDROOT
BRANCH   1   5
ATOM      5  C2   11 d         -12.895 207.839 116.177  0.00  0.00     0.066 A 
ATOM      6  C3   11 d         -13.226 207.380 117.477  0.00  0.00     0.081 A 
ATOM      7  C4   11 d         -12.232 207.293 118.466  0.00  0.00     0.037 A 
ATOM      8  C5   11 d         -10.902 207.617 118.169  0.00  0.00     0.003 A 
ATOM      9  C6   11 d         -10.561 208.048 116.881  0.00  0.00     0.001 A 
ATOM     10  C7   11 d         -11.548 208.160 115.892  0.00  0.00     0.020 A 
BRANCH   6  11
ATOM     11  O1   11 d         -14.566 207.146 117.860  0.00  0.00    -0.360 OA
ATOM     12  H5   11 d         -14.635 207.466 118.843  0.00  0.00     0.217 HD
ENDBRANCH   6  11
ENDBRANCH   1   5
BRANCH   3  13
ATOM     13  N2   11 d         -15.754 207.048 113.788  0.00  0.00    -0.181 NA
ATOM     14  C8   11 d         -15.550 206.562 112.584  0.00  0.00     0.032 C 
ATOM     15  C9   11 d         -14.304 205.897 112.078  0.00  0.00     0.056 C 
ATOM     16  C12  11 d         -16.522 206.827 111.488  0.00  0.00     0.056 C 
ATOM     17  C10  11 d         -14.579 205.734 110.585  0.00  0.00     0.006 C 
ATOM     18  C11  11 d         -15.627 206.790 110.257  0.00  0.00     0.006 C 
ENDBRANCH   3  13
TORSDOF 3
ENDMDL
MODEL 8
REMARK VINA RESULT:      -6.9      2.549      6.837
REMARK  3 active torsions:
REMARK  status: ('A' for Active; 'I' for Inactive)
REMARK    1  A    between atoms: C1_1  and  C2_2 
REMARK       I    between atoms: C1_1  and  N1_10 
REMARK    2  A    between atoms: C3_3  and  O1_8 
REMARK    3  A    between atoms: N1_10  and  N2_11 
ROOT
ATOM      1  C1   11 d          -9.933 208.736 114.510  0.00  0.00     0.274 C 
ATOM      2  O2   11 d          -9.807 208.677 115.786  0.00  0.00    -0.266 OA
ATOM      3  N1   11 d          -8.981 209.479 113.750  0.00  0.00    -0.243 N 
ATOM      4  H6   11 d          -9.057 209.545 112.681  0.00  0.00     0.192 HD
ENDROOT
BRANCH   1   5
ATOM      5  C2   11 d         -11.070 208.031 113.851  0.00  0.00     0.066 A 
ATOM      6  C3   11 d         -12.380 208.097 114.388  0.00  0.00     0.081 A 
ATOM      7  C4   11 d         -13.433 207.412 113.759  0.00  0.00     0.037 A 
ATOM      8  C5   11 d         -13.209 206.693 112.578  0.00  0.00     0.003 A 
ATOM      9  C6   11 d         -11.923 206.641 112.026  0.00  0.00     0.001 A 
ATOM     10  C7   11 d         -10.860 207.303 112.657  0.00  0.00     0.020 A 
BRANCH   6  11
ATOM     11  O1   11 d         -12.640 208.715 115.633  0.00  0.00    -0.360 OA
ATOM     12  H5   11 d         -13.054 209.637 115.406  0.00  0.00     0.217 HD
ENDBRANCH   6  11
ENDBRANCH   1   5
BRANCH   3  13
ATOM     13  N2   11 d          -7.941 210.121 114.438  0.00  0.00    -0.181 NA
ATOM     14  C8   11 d          -6.689 209.841 114.153  0.00  0.00     0.032 C 
ATOM     15  C9   11 d          -6.192 208.780 113.216  0.00  0.00     0.056 C 
ATOM     16  C12  11 d          -5.580 210.454 114.936  0.00  0.00     0.056 C 
ATOM     17  C10  11 d          -4.683 208.793 113.446  0.00  0.00     0.006 C 
ATOM     18  C11  11 d          -4.498 209.389 114.836  0.00  0.00     0.006 C 
ENDBRANCH   3  13
TORSDOF 3
ENDMDL
MODEL 9
REMARK VINA RESULT:      -6.7      2.565      6.482
REMARK  3 active torsions:
REMARK  status: ('A' for Active; 'I' for Inactive)
REMARK    1  A    between atoms: C1_1  and  C2_2 
REMARK       I    between atoms: C1_1  and  N1_10 
REMARK    2  A    between atoms: C3_3  and  O1_8 
REMARK    3  A    between atoms: N1_10  and  N2_11 
ROOT
ATOM      1  C1   11 d         -13.623 207.964 113.752  0.00  0.00     0.274 C 
ATOM      2  O2   11 d         -13.946 208.947 114.512  0.00  0.00    -0.266 OA
ATOM      3  N1   11 d         -12.264 207.532 113.712  0.00  0.00    -0.243 N 
ATOM      4  H6   11 d         -11.963 206.712 113.089  0.00  0.00     0.192 HD
ENDROOT
BRANCH   1   5
ATOM      5  C2   11 d         -14.673 207.299 112.928  0.00  0.00     0.066 A 
ATOM      6  C3   11 d         -15.683 206.509 113.531  0.00  0.00     0.081 A 
ATOM      7  C4   11 d         -16.653 205.878 112.734  0.00  0.00     0.037 A 
ATOM      8  C5   11 d         -16.656 206.055 111.344  0.00  0.00     0.003 A 
ATOM      9  C6   11 d         -15.677 206.854 110.741  0.00  0.00     0.001 A 
ATOM     10  C7   11 d         -14.691 207.470 111.525  0.00  0.00     0.020 A 
BRANCH   6  11
ATOM     11  O1   11 d         -15.662 206.207 114.913  0.00  0.00    -0.360 OA
ATOM     12  H5   11 d         -16.460 205.566 115.071  0.00  0.00     0.217 HD
ENDBRANCH   6  11
ENDBRANCH   1   5
BRANCH   3  13
ATOM     13  N2   11 d         -11.331 208.210 114.510  0.00  0.00    -0.181 NA
ATOM     14  C8   11 d         -11.061 207.778 115.721  0.00  0.00     0.032 C 
ATOM     15  C9   11 d         -11.743 206.660 116.454  0.00  0.00     0.056 C 
ATOM     16  C12  11 d         -10.137 208.539 116.607  0.00  0.00     0.056 C 
ATOM     17  C10  11 d         -11.153 206.755 117.859  0.00  0.00     0.006 C 
ATOM     18  C11  11 d         -10.669 208.193 117.990  0.00  0.00     0.006 C 
ENDBRANCH   3  13
TORSDOF 3
ENDMDL
MODEL 10
REMARK VINA RESULT:      -6.7      2.711      3.980
REMARK  3 active torsions:
REMARK  status: ('A' for Active; 'I' for Inactive)
REMARK    1  A    between atoms: C1_1  and  C2_2 
REMARK       I    between atoms: C1_1  and  N1_10 
REMARK    2  A    between atoms: C3_3  and  O1_8 
REMARK    3  A    between atoms: N1_10  and  N2_11 
ROOT
ATOM      1  C1   11 d          -8.486 208.988 114.051  0.00  0.00     0.274 C 
ATOM      2  O2   11 d          -8.841 210.201 113.823  0.00  0.00    -0.266 OA
ATOM      3  N1   11 d          -9.466 208.046 114.484  0.00  0.00    -0.243 N 
ATOM      4  H6   11 d          -9.202 207.024 114.681  0.00  0.00     0.192 HD
ENDROOT
BRANCH   1   5
ATOM      5  C2   11 d          -7.061 208.593 113.862  0.00  0.00     0.066 A 
ATOM      6  C3   11 d          -6.458 208.625 112.580  0.00  0.00     0.081 A 
ATOM      7  C4   11 d          -5.118 208.233 112.423  0.00  0.00     0.037 A 
ATOM      8  C5   11 d          -4.355 207.847 113.533  0.00  0.00     0.003 A 
ATOM      9  C6   11 d          -4.934 207.835 114.807  0.00  0.00     0.001 A 
ATOM     10  C7   11 d          -6.277 208.203 114.973  0.00  0.00     0.020 A 
BRANCH   6  11
ATOM     11  O1   11 d          -7.210 208.899 111.415  0.00  0.00    -0.360 OA
ATOM     12  H5   11 d          -8.202 208.881 111.712  0.00  0.00     0.217 HD
ENDBRANCH   6  11
ENDBRANCH   1   5
BRANCH   3  13
ATOM     13  N2   11 d         -10.786 208.492 114.646  0.00  0.00    -0.181 NA
ATOM     14  C8   11 d         -11.788 207.751 114.228  0.00  0.00     0.032 C 
ATOM     15  C9   11 d         -11.703 206.471 113.449  0.00  0.00     0.056 C 
ATOM     16  C12  11 d         -13.188 208.253 114.317  0.00  0.00     0.056 C 
ATOM     17  C10  11 d         -13.158 206.189 113.083  0.00  0.00     0.006 C 
ATOM     18  C11  11 d         -13.853 207.543 113.147  0.00  0.00     0.006 C 
ENDBRANCH   3  13
TORSDOF 3
ENDMDL
MODEL 11
REMARK VINA RESULT:      -6.7      3.726      6.366
REMARK  3 active torsions:
REMARK  status: ('A' for Active; 'I' for Inactive)
REMARK    1  A    between atoms: C1_1  and  C2_2 
REMARK       I    between atoms: C1_1  and  N1_10 
REMARK    2  A    between atoms: C3_3  and  O1_8 
REMARK    3  A    between atoms: N1_10  and  N2_11 
ROOT
ATOM      1  C1   11 d         -14.903 206.795 114.056  0.00  0.00     0.274 C 
ATOM      2  O2   11 d         -15.637 205.880 114.579  0.00  0.00    -0.266 OA
ATOM      3  N1   11 d         -14.281 207.758 114.904  0.00  0.00    -0.243 N 
ATOM      4  H6   11 d         -13.659 208.534 114.498  0.00  0.00     0.192 HD
ENDROOT
BRANCH   1   5
ATOM      5  C2   11 d         -14.722 206.833 112.576  0.00  0.00     0.066 A 
ATOM      6  C3   11 d         -15.837 206.913 111.705  0.00  0.00     0.081 A 
ATOM      7  C4   11 d         -15.642 206.931 110.314  0.00  0.00     0.037 A 
ATOM      8  C5   11 d         -14.349 206.913 109.776  0.00  0.00     0.003 A 
ATOM      9  C6   11 d         -13.240 206.859 110.628  0.00  0.00     0.001 A 
ATOM     10  C7   11 d         -13.423 206.818 112.018  0.00  0.00     0.020 A 
BRANCH   6  11
ATOM     11  O1   11 d         -17.162 206.823 112.188  0.00  0.00    -0.360 OA
ATOM     12  H5   11 d         -17.604 206.055 111.651  0.00  0.00     0.217 HD
ENDBRANCH   6  11
ENDBRANCH   1   5
BRANCH   3  13
ATOM     13  N2   11 d         -14.501 207.663 116.286  0.00  0.00    -0.181 NA
ATOM     14  C8   11 d         -13.524 207.303 117.088  0.00  0.00     0.032 C 
ATOM     15  C9   11 d         -12.154 206.839 116.690  0.00  0.00     0.056 C 
ATOM     16  C12  11 d         -13.771 207.117 118.545  0.00  0.00     0.056 C 
ATOM     17  C10  11 d         -11.546 206.377 118.011  0.00  0.00     0.006 C 
ATOM     18  C11  11 d         -12.737 206.062 118.907  0.00  0.00     0.006 C 
ENDBRANCH   3  13
TORSDOF 3
ENDMDL
MODEL 12
REMARK VINA RESULT:      -6.7      2.240      3.159
REMARK  3 active torsions:
REMARK  status: ('A' for Active; 'I' for Inactive)
REMARK    1  A    between atoms: C1_1  and  C2_2 
REMARK       I    between atoms: C1_1  and  N1_10 
REMARK    2  A    between atoms: C3_3  and  O1_8 
REMARK    3  A    between atoms: N1_10  and  N2_11 
ROOT
ATOM      1  C1   11 d         -13.679 207.093 115.427  0.00  0.00     0.274 C 
ATOM      2  O2   11 d         -14.795 207.640 115.748  0.00  0.00    -0.266 OA
ATOM      3  N1   11 d         -13.668 206.051 114.453  0.00  0.00    -0.243 N 
ATOM      4  H6   11 d         -12.751 205.576 114.160  0.00  0.00     0.192 HD
ENDROOT
BRANCH   1   5
ATOM      5  C2   11 d         -12.421 207.556 116.080  0.00  0.00     0.066 A 
ATOM      6  C3   11 d         -11.352 208.087 115.314  0.00  0.00     0.081 A 
ATOM      7  C4   11 d         -10.170 208.503 115.949  0.00  0.00     0.037 A 
ATOM      8  C5   11 d         -10.050 208.435 117.343  0.00  0.00     0.003 A 
ATOM      9  C6   11 d         -11.108 207.934 118.111  0.00  0.00     0.001 A 
ATOM     10  C7   11 d         -12.285 207.496 117.486  0.00  0.00     0.020 A 
BRANCH   6  11
ATOM     11  O1   11 d         -11.378 208.076 113.901  0.00  0.00    -0.360 OA
ATOM     12  H5   11 d         -12.371 207.940 113.641  0.00  0.00     0.217 HD
ENDBRANCH   6  11
ENDBRANCH   1   5
BRANCH   3  13
ATOM     13  N2   11 d         -14.891 205.664 113.885  0.00  0.00    -0.181 NA
ATOM     14  C8   11 d         -15.159 205.955 112.632  0.00  0.00     0.032 C 
ATOM     15  C9   11 d         -14.333 206.797 111.704  0.00  0.00     0.056 C 
ATOM     16  C12  11 d         -16.487 205.624 112.046  0.00  0.00     0.056 C 
ATOM     17  C10  11 d         -15.230 206.944 110.477  0.00  0.00     0.006 C 
ATOM     18  C11  11 d         -16.645 206.708 110.990  0.00  0.00     0.006 C 
ENDBRANCH   3  13
TORSDOF 3
ENDMDL
MODEL 13
REMARK VINA RESULT:      -6.6      2.763      6.341
REMARK  3 active torsions:
REMARK  status: ('A' for Active; 'I' for Inactive)
REMARK    1  A    between atoms: C1_1  and  C2_2 
REMARK       I    between atoms: C1_1  and  N1_10 
REMARK    2  A    between atoms: C3_3  and  O1_8 
REMARK    3  A    between atoms: N1_10  and  N2_11 
ROOT
ATOM      1  C1   11 d         -14.250 206.369 114.326  0.00  0.00     0.274 C 
ATOM      2  O2   11 d         -15.022 206.668 115.308  0.00  0.00    -0.266 OA
ATOM      3  N1   11 d         -12.933 205.894 114.595  0.00  0.00    -0.243 N 
ATOM      4  H6   11 d         -12.264 205.633 113.796  0.00  0.00     0.192 HD
ENDROOT
BRANCH   1   5
ATOM      5  C2   11 d         -14.747 206.527 112.929  0.00  0.00     0.066 A 
ATOM      6  C3   11 d         -13.869 206.895 111.879  0.00  0.00     0.081 A 
ATOM      7  C4   11 d         -14.362 207.054 110.573  0.00  0.00     0.037 A 
ATOM      8  C5   11 d         -15.712 206.812 110.288  0.00  0.00     0.003 A 
ATOM      9  C6   11 d         -16.583 206.425 111.314  0.00  0.00     0.001 A 
ATOM     10  C7   11 d         -16.106 206.284 112.625  0.00  0.00     0.020 A 
BRANCH   6  11
ATOM     11  O1   11 d         -12.526 207.257 112.129  0.00  0.00    -0.360 OA
ATOM     12  H5   11 d         -12.152 206.525 112.759  0.00  0.00     0.217 HD
ENDBRANCH   6  11
ENDBRANCH   1   5
BRANCH   3  13
ATOM     13  N2   11 d         -12.532 205.776 115.934  0.00  0.00    -0.181 NA
ATOM     14  C8   11 d         -11.804 206.718 116.491  0.00  0.00     0.032 C 
ATOM     15  C9   11 d         -11.210 207.919 115.815  0.00  0.00     0.056 C 
ATOM     16  C12  11 d         -11.303 206.562 117.885  0.00  0.00     0.056 C 
ATOM     17  C10  11 d         -10.322 208.524 116.899  0.00  0.00     0.006 C 
ATOM     18  C11  11 d         -10.016 207.373 117.850  0.00  0.00     0.006 C 
ENDBRANCH   3  13
TORSDOF 3
ENDMDL
MODEL 14
REMARK VINA RESULT:      -6.6      2.504      6.926
REMARK  3 active torsions:
REMARK  status: ('A' for Active; 'I' for Inactive)
REMARK    1  A    between atoms: C1_1  and  C2_2 
REMARK       I    between atoms: C1_1  and  N1_10 
REMARK    2  A    between atoms: C3_3  and  O1_8 
REMARK    3  A    between atoms: N1_10  and  N2_11 
ROOT
ATOM      1  C1   11 d         -10.402 208.344 114.380  0.00  0.00     0.274 C 
ATOM      2  O2   11 d         -10.874 208.927 115.421  0.00  0.00    -0.266 OA
ATOM      3  N1   11 d          -9.009 208.452 114.092  0.00  0.00    -0.243 N 
ATOM      4  H6   11 d          -8.583 207.973 113.231  0.00  0.00     0.192 HD
ENDROOT
BRANCH   1   5
ATOM      5  C2   11 d         -11.319 207.570 113.494  0.00  0.00     0.066 A 
ATOM      6  C3   11 d         -11.137 207.555 112.088  0.00  0.00     0.081 A 
ATOM      7  C4   11 d         -12.022 206.831 111.272  0.00  0.00     0.037 A 
ATOM      8  C5   11 d         -13.065 206.087 111.839  0.00  0.00     0.003 A 
ATOM      9  C6   11 d         -13.238 206.075 113.228  0.00  0.00     0.001 A 
ATOM     10  C7   11 d         -12.374 206.811 114.051  0.00  0.00     0.020 A 
BRANCH   6  11
ATOM     11  O1   11 d         -10.172 208.373 111.458  0.00  0.00    -0.360 OA
ATOM     12  H5   11 d         -10.700 208.964 110.791  0.00  0.00     0.217 HD
ENDBRANCH   6  11
ENDBRANCH   1   5
BRANCH   3  13
ATOM     13  N2   11 d          -8.209 209.201 114.967  0.00  0.00    -0.181 NA
ATOM     14  C8   11 d          -6.981 209.522 114.627  0.00  0.00     0.032 C 
ATOM     15  C9   11 d          -6.233 209.068 113.407  0.00  0.00     0.056 C 
ATOM     16  C12  11 d          -6.096 210.243 115.583  0.00  0.00     0.056 C 
ATOM     17  C10  11 d          -4.819 209.586 113.654  0.00  0.00     0.006 C 
ATOM     18  C11  11 d          -4.716 209.757 115.164  0.00  0.00     0.006 C 
ENDBRANCH   3  13
TORSDOF 3
ENDMDL
MODEL 15
REMARK VINA RESULT:      -6.5      4.445      6.667
REMARK  3 active torsions:
REMARK  status: ('A' for Active; 'I' for Inactive)
REMARK    1  A    between atoms: C1_1  and  C2_2 
REMARK       I    between atoms: C1_1  and  N1_10 
REMARK    2  A    between atoms: C3_3  and  O1_8 
REMARK    3  A    between atoms: N1_10  and  N2_11 
ROOT
ATOM      1  C1   11 d         -14.313 206.270 114.735  0.00  0.00     0.274 C 
ATOM      2  O2   11 d         -13.871 207.323 115.322  0.00  0.00    -0.266 OA
ATOM      3  N1   11 d         -14.622 205.116 115.514  0.00  0.00    -0.243 N 
ATOM      4  H6   11 d         -14.995 204.221 115.054  0.00  0.00     0.192 HD
ENDROOT
BRANCH   1   5
ATOM      5  C2   11 d         -14.490 206.276 113.254  0.00  0.00     0.066 A 
ATOM      6  C3   11 d         -15.775 206.139 112.671  0.00  0.00     0.081 A 
ATOM      7  C4   11 d         -15.916 206.131 111.274  0.00  0.00     0.037 A 
ATOM      8  C5   11 d         -14.799 206.298 110.445  0.00  0.00     0.003 A 
ATOM      9  C6   11 d         -13.528 206.459 111.011  0.00  0.00     0.001 A 
ATOM     10  C7   11 d         -13.373 206.447 112.405  0.00  0.00     0.020 A 
BRANCH   6  11
ATOM     11  O1   11 d         -16.917 205.857 113.455  0.00  0.00    -0.360 OA
ATOM     12  H5   11 d         -17.568 206.647 113.294  0.00  0.00     0.217 HD
ENDBRANCH   6  11
ENDBRANCH   1   5
BRANCH   3  13
ATOM     13  N2   11 d         -14.425 205.183 116.902  0.00  0.00    -0.181 NA
ATOM     14  C8   11 d         -14.859 204.214 117.677  0.00  0.00     0.032 C 
ATOM     15  C9   11 d         -15.689 203.033 117.268  0.00  0.00     0.056 C 
ATOM     16  C12  11 d         -14.731 204.316 119.157  0.00  0.00     0.056 C 
ATOM     17  C10  11 d         -16.046 202.382 118.601  0.00  0.00     0.006 C 
ATOM     18  C11  11 d         -15.919 203.494 119.634  0.00  0.00     0.006 C 
ENDBRANCH   3  13
TORSDOF 3
ENDMDL
MODEL 16
REMARK VINA RESULT:      -6.5      3.818      6.330
REMARK  3 active torsions:
REMARK  status: ('A' for Active; 'I' for Inactive)
REMARK    1  A    between atoms: C1_1  and  C2_2 
REMARK       I    between atoms: C1_1  and  N1_10 
REMARK    2  A    between atoms: C3_3  and  O1_8 
REMARK    3  A    between atoms: N1_10  and  N2_11 
ROOT
ATOM      1  C1   11 d         -14.495 206.921 114.429  0.00  0.00     0.274 C 
ATOM      2  O2   11 d         -14.993 207.867 115.140  0.00  0.00    -0.266 OA
ATOM      3  N1   11 d         -13.655 205.951 115.049  0.00  0.00    -0.243 N 
ATOM      4  H6   11 d         -13.226 205.147 114.482  0.00  0.00     0.192 HD
ENDROOT
BRANCH   1   5
ATOM      5  C2   11 d         -14.804 206.861 112.971  0.00  0.00     0.066 A 
ATOM      6  C3   11 d         -13.775 206.960 112.001  0.00  0.00     0.081 A 
ATOM      7  C4   11 d         -14.091 206.915 110.633  0.00  0.00     0.037 A 
ATOM      8  C5   11 d         -15.416 206.733 110.215  0.00  0.00     0.003 A 
ATOM      9  C6   11 d         -16.437 206.610 111.165  0.00  0.00     0.001 A 
ATOM     10  C7   11 d         -16.135 206.674 112.533  0.00  0.00     0.020 A 
BRANCH   6  11
ATOM     11  O1   11 d         -12.441 207.254 112.365  0.00  0.00    -0.360 OA
ATOM     12  H5   11 d         -12.491 207.631 113.328  0.00  0.00     0.217 HD
ENDBRANCH   6  11
ENDBRANCH   1   5
BRANCH   3  13
ATOM     13  N2   11 d         -13.404 206.075 116.424  0.00  0.00    -0.181 NA
ATOM     14  C8   11 d         -13.862 205.173 117.262  0.00  0.00     0.032 C 
ATOM     15  C9   11 d         -14.772 204.023 116.944  0.00  0.00     0.056 C 
ATOM     16  C12  11 d         -13.674 205.342 118.730  0.00  0.00     0.056 C 
ATOM     17  C10  11 d         -15.115 203.460 118.321  0.00  0.00     0.006 C 
ATOM     18  C11  11 d         -14.888 204.614 119.289  0.00  0.00     0.006 C 
ENDBRANCH   3  13
TORSDOF 3
ENDMDL
MODEL 17
REMARK VINA RESULT:      -6.5      2.812      3.696
REMARK  3 active torsions:
REMARK  status: ('A' for Active; 'I' for Inactive)
REMARK    1  A    between atoms: C1_1  and  C2_2 
REMARK       I    between atoms: C1_1  and  N1_10 
REMARK    2  A    between atoms: C3_3  and  O1_8 
REMARK    3  A    between atoms: N1_10  and  N2_11 
ROOT
ATOM      1  C1   11 d         -12.836 207.776 115.036  0.00  0.00     0.274 C 
ATOM      2  O2   11 d         -13.431 208.912 114.977  0.00  0.00    -0.266 OA
ATOM      3  N1   11 d         -12.827 206.934 113.884  0.00  0.00    -0.243 N 
ATOM      4  H6   11 d         -12.335 205.980 113.901  0.00  0.00     0.192 HD
ENDROOT
BRANCH   1   5
ATOM      5  C2   11 d         -12.172 207.361 116.305  0.00  0.00     0.066 A 
ATOM      6  C3   11 d         -11.186 208.177 116.914  0.00  0.00     0.081 A 
ATOM      7  C4   11 d         -10.562 207.759 118.101  0.00  0.00     0.037 A 
ATOM      8  C5   11 d         -10.934 206.556 118.715  0.00  0.00     0.003 A 
ATOM      9  C6   11 d         -11.925 205.754 118.134  0.00  0.00     0.001 A 
ATOM     10  C7   11 d         -12.539 206.151 116.938  0.00  0.00     0.020 A 
BRANCH   6  11
ATOM     11  O1   11 d         -10.695 209.342 116.282  0.00  0.00    -0.360 OA
ATOM     12  H5   11 d         -11.477 210.021 116.302  0.00  0.00     0.217 HD
ENDBRANCH   6  11
ENDBRANCH   1   5
BRANCH   3  13
ATOM     13  N2   11 d         -13.477 207.388 112.728  0.00  0.00    -0.181 NA
ATOM     14  C8   11 d         -14.722 207.038 112.490  0.00  0.00     0.032 C 
ATOM     15  C9   11 d         -15.553 206.067 113.276  0.00  0.00     0.056 C 
ATOM     16  C12  11 d         -15.392 207.444 111.224  0.00  0.00     0.056 C 
ATOM     17  C10  11 d         -16.811 205.918 112.424  0.00  0.00     0.006 C 
ATOM     18  C11  11 d         -16.385 206.311 111.015  0.00  0.00     0.006 C 
ENDBRANCH   3  13
TORSDOF 3
ENDMDL
MODEL 18
REMARK VINA RESULT:      -6.4      3.802      4.843
REMARK  3 active torsions:
REMARK  status: ('A' for Active; 'I' for Inactive)
REMARK    1  A    between atoms: C1_1  and  C2_2 
REMARK       I    between atoms: C1_1  and  N1_10 
REMARK    2  A    between atoms: C3_3  and  O1_8 
REMARK    3  A    between atoms: N1_10  and  N2_11 
ROOT
ATOM      1  C1   11 d         -14.901 206.736 114.999  0.00  0.00     0.274 C 
ATOM      2  O2   11 d         -15.513 207.843 114.777  0.00  0.00    -0.266 OA
ATOM      3  N1   11 d         -14.942 205.708 114.011  0.00  0.00    -0.243 N 
ATOM      4  H6   11 d         -14.438 204.773 114.165  0.00  0.00     0.192 HD
ENDROOT
BRANCH   1   5
ATOM      5  C2   11 d         -14.165 206.550 116.282  0.00  0.00     0.066 A 
ATOM      6  C3   11 d         -14.276 205.344 117.020  0.00  0.00     0.081 A 
ATOM      7  C4   11 d         -13.585 205.197 118.234  0.00  0.00     0.037 A 
ATOM      8  C5   11 d         -12.752 206.218 118.707  0.00  0.00     0.003 A 
ATOM      9  C6   11 d         -12.616 207.404 117.974  0.00  0.00     0.001 A 
ATOM     10  C7   11 d         -13.318 207.570 116.771  0.00  0.00     0.020 A 
BRANCH   6  11
ATOM     11  O1   11 d         -15.185 204.329 116.646  0.00  0.00    -0.360 OA
ATOM     12  H5   11 d         -15.974 204.401 117.313  0.00  0.00     0.217 HD
ENDBRANCH   6  11
ENDBRANCH   1   5
BRANCH   3  13
ATOM     13  N2   11 d         -15.659 205.952 112.831  0.00  0.00    -0.181 NA
ATOM     14  C8   11 d         -15.021 206.245 111.720  0.00  0.00     0.032 C 
ATOM     15  C9   11 d         -13.548 206.483 111.559  0.00  0.00     0.056 C 
ATOM     16  C12  11 d         -15.776 206.590 110.483  0.00  0.00     0.056 C 
ATOM     17  C10  11 d         -13.430 206.972 110.118  0.00  0.00     0.006 C 
ATOM     18  C11  11 d         -14.808 207.523 109.772  0.00  0.00     0.006 C 
ENDBRANCH   3  13
TORSDOF 3
ENDMDL
MODEL 19
REMARK VINA RESULT:      -6.2      4.626      5.878
REMARK  3 active torsions:
REMARK  status: ('A' for Active; 'I' for Inactive)
REMARK    1  A    between atoms: C1_1  and  C2_2 
REMARK       I    between atoms: C1_1  and  N1_10 
REMARK    2  A    between atoms: C3_3  and  O1_8 
REMARK    3  A    between atoms: N1_10  and  N2_11 
ROOT
ATOM      1  C1   11 d         -13.335 205.687 116.555  0.00  0.00     0.274 C 
ATOM      2  O2   11 d         -12.166 205.185 116.382  0.00  0.00    -0.266 OA
ATOM      3  N1   11 d         -14.045 206.200 115.429  0.00  0.00    -0.243 N 
ATOM      4  H6   11 d         -15.026 206.623 115.540  0.00  0.00     0.192 HD
ENDROOT
BRANCH   1   5
ATOM      5  C2   11 d         -13.922 205.725 117.925  0.00  0.00     0.066 A 
ATOM      6  C3   11 d         -14.055 206.948 118.629  0.00  0.00     0.081 A 
ATOM      7  C4   11 d         -14.597 206.958 119.925  0.00  0.00     0.037 A 
ATOM      8  C5   11 d         -15.046 205.771 120.517  0.00  0.00     0.003 A 
ATOM      9  C6   11 d         -14.941 204.561 119.821  0.00  0.00     0.001 A 
ATOM     10  C7   11 d         -14.383 204.536 118.535  0.00  0.00     0.020 A 
BRANCH   6  11
ATOM     11  O1   11 d         -13.519 208.155 118.125  0.00  0.00    -0.360 OA
ATOM     12  H5   11 d         -14.318 208.811 118.061  0.00  0.00     0.217 HD
ENDBRANCH   6  11
ENDBRANCH   1   5
BRANCH   3  13
ATOM     13  N2   11 d         -13.428 206.136 114.171  0.00  0.00    -0.181 NA
ATOM     14  C8   11 d         -14.158 206.072 113.080  0.00  0.00     0.032 C 
ATOM     15  C9   11 d         -15.649 205.933 112.998  0.00  0.00     0.056 C 
ATOM     16  C12  11 d         -13.512 205.917 111.747  0.00  0.00     0.056 C 
ATOM     17  C10  11 d         -15.896 205.711 111.508  0.00  0.00     0.006 C 
ATOM     18  C11  11 d         -14.581 205.168 110.965  0.00  0.00     0.006 C 
ENDBRANCH   3  13
TORSDOF 3
ENDMDL
MODEL 20
REMARK VINA RESULT:      -6.1      3.088      4.349
REMARK  3 active torsions:
REMARK  status: ('A' for Active; 'I' for Inactive)
REMARK    1  A    between atoms: C1_1  and  C2_2 
REMARK       I    between atoms: C1_1  and  N1_10 
REMARK    2  A    between atoms: C3_3  and  O1_8 
REMARK    3  A    between atoms: N1_10  and  N2_11 
ROOT
ATOM      1  C1   11 d          -7.573 208.639 112.639  0.00  0.00     0.274 C 
ATOM      2  O2   11 d          -7.145 208.388 111.455  0.00  0.00    -0.266 OA
ATOM      3  N1   11 d          -8.960 208.477 112.927  0.00  0.00    -0.243 N 
ATOM      4  H6   11 d          -9.349 208.676 113.908  0.00  0.00     0.192 HD
ENDROOT
BRANCH   1   5
ATOM      5  C2   11 d          -6.613 209.097 113.683  0.00  0.00     0.066 A 
ATOM      6  C3   11 d          -5.229 208.807 113.582  0.00  0.00     0.081 A 
ATOM      7  C4   11 d          -4.345 209.235 114.586  0.00  0.00     0.037 A 
ATOM      8  C5   11 d          -4.812 209.985 115.673  0.00  0.00     0.003 A 
ATOM      9  C6   11 d          -6.173 210.298 115.770  0.00  0.00     0.001 A 
ATOM     10  C7   11 d          -7.068 209.858 114.785  0.00  0.00     0.020 A 
BRANCH   6  11
ATOM     11  O1   11 d          -4.722 207.963 112.567  0.00  0.00    -0.360 OA
ATOM     12  H5   11 d          -4.850 206.997 112.918  0.00  0.00     0.217 HD
ENDBRANCH   6  11
ENDBRANCH   1   5
BRANCH   3  13
ATOM     13  N2   11 d          -9.806 208.048 111.893  0.00  0.00    -0.181 NA
ATOM     14  C8   11 d         -11.034 207.665 112.161  0.00  0.00     0.032 C 
ATOM     15  C9   11 d         -11.655 207.503 113.517  0.00  0.00     0.056 C 
ATOM     16  C12  11 d         -11.909 207.127 111.082  0.00  0.00     0.056 C 
ATOM     17  C10  11 d         -13.001 206.853 113.208  0.00  0.00     0.006 C 
ATOM     18  C11  11 d         -12.814 206.179 111.855  0.00  0.00     0.006 C 
ENDBRANCH   3  13
TORSDOF 3
ENDMDL
