MODEL 1
REMARK VINA RESULT:      -8.7      0.000      0.000
REMARK  0 active torsions:
REMARK  status: ('A' for Active; 'I' for Inactive)
ROOT
ATOM      1  C1   11 d          -9.968 208.409 114.124  0.00  0.00     0.262 A 
ATOM      2  N1   11 d         -10.729 207.917 113.030  0.00  0.00    -0.251 N 
ATOM      3  C2   11 d         -10.018 208.369 111.893  0.00  0.00     0.233 A 
ATOM      4  O1   11 d         -10.354 208.154 110.681  0.00  0.00    -0.273 OA
ATOM      5  C3   11 d          -8.785 209.132 112.211  0.00  0.00     0.146 A 
ATOM      6  C4   11 d          -8.742 209.209 113.752  0.00  0.00     0.289 A 
ATOM      7  N2   11 d          -7.424 208.770 114.374  0.00  0.00    -0.054 N 
ATOM      8  C5   11 d          -7.445 208.791 115.886  0.00  0.00     0.262 C 
ATOM      9  C6   11 d          -6.069 208.522 116.507  0.00  0.00     0.195 C 
ATOM     10  O2   11 d          -5.099 209.448 115.967  0.00  0.00    -0.388 OA
ATOM     11  C7   11 d          -4.954 209.291 114.536  0.00  0.00     0.195 C 
ATOM     12  C8   11 d          -6.286 209.628 113.864  0.00  0.00     0.262 C 
ATOM     13  C9   11 d         -11.993 207.108 113.066  0.00  0.00     0.045 A 
ATOM     14  C10  11 d         -12.654 206.700 111.877  0.00  0.00     0.037 A 
ATOM     15  C11  11 d         -13.829 205.921 111.901  0.00  0.00    -0.060 A 
ATOM     16  C12  11 d         -14.404 205.584 113.134  0.00  0.00     0.007 A 
ATOM     17  C13  11 d         -13.779 205.968 114.323  0.00  0.00     0.003 A 
ATOM     18  C14  11 d         -12.592 206.712 114.291  0.00  0.00     0.030 A 
ATOM     19  C15  11 d         -14.556 205.602 110.621  0.00  0.00     0.048 C 
ATOM     20  O3   11 d         -10.274 208.219 115.348  0.00  0.00    -0.270 OA
ATOM     21  H4   11 d          -7.235 207.754 114.073  0.00  0.00     0.281 HD
ENDROOT
TORSDOF 0
ENDMDL
MODEL 2
REMARK VINA RESULT:      -8.4      3.336      4.085
REMARK  0 active torsions:
REMARK  status: ('A' for Active; 'I' for Inactive)
ROOT
ATOM      1  C1   11 d         -12.986 207.373 115.672  0.00  0.00     0.262 A 
ATOM      2  N1   11 d         -13.020 207.407 114.252  0.00  0.00    -0.251 N 
ATOM      3  C2   11 d         -11.757 207.936 113.895  0.00  0.00     0.233 A 
ATOM      4  O1   11 d         -11.356 208.144 112.703  0.00  0.00    -0.273 OA
ATOM      5  C3   11 d         -10.874 208.232 115.051  0.00  0.00     0.146 A 
ATOM      6  C4   11 d         -11.713 207.887 116.301  0.00  0.00     0.289 A 
ATOM      7  N2   11 d         -11.022 206.966 117.296  0.00  0.00    -0.054 N 
ATOM      8  C5   11 d         -11.900 206.594 118.469  0.00  0.00     0.262 C 
ATOM      9  C6   11 d         -11.149 205.816 119.556  0.00  0.00     0.195 C 
ATOM     10  O2   11 d          -9.979 206.558 119.970  0.00  0.00    -0.388 OA
ATOM     11  C7   11 d          -9.056 206.750 118.873  0.00  0.00     0.195 C 
ATOM     12  C8   11 d          -9.737 207.594 117.794  0.00  0.00     0.262 C 
ATOM     13  C9   11 d         -14.134 206.983 113.338  0.00  0.00     0.045 A 
ATOM     14  C10  11 d         -14.026 207.093 111.926  0.00  0.00     0.037 A 
ATOM     15  C11  11 d         -15.057 206.676 111.060  0.00  0.00    -0.060 A 
ATOM     16  C12  11 d         -16.255 206.193 111.603  0.00  0.00     0.007 A 
ATOM     17  C13  11 d         -16.395 206.070 112.987  0.00  0.00     0.003 A 
ATOM     18  C14  11 d         -15.352 206.454 113.841  0.00  0.00     0.030 A 
ATOM     19  C15  11 d         -14.945 206.910 109.577  0.00  0.00     0.048 C 
ATOM     20  O3   11 d         -13.949 206.957 116.397  0.00  0.00    -0.270 OA
ATOM     21  H4   11 d         -10.769 206.053 116.786  0.00  0.00     0.281 HD
ENDROOT
TORSDOF 0
ENDMDL
MODEL 3
REMARK VINA RESULT:      -8.2      1.741      2.066
REMARK  0 active torsions:
REMARK  status: ('A' for Active; 'I' for Inactive)
ROOT
ATOM      1  C1   11 d         -11.275 208.214 115.233  0.00  0.00     0.262 A 
ATOM      2  N1   11 d         -11.761 207.893 113.938  0.00  0.00    -0.251 N 
ATOM      3  C2   11 d         -10.673 208.192 113.084  0.00  0.00     0.233 A 
ATOM      4  O1   11 d         -10.673 208.055 111.816  0.00  0.00    -0.273 OA
ATOM      5  C3   11 d          -9.464 208.683 113.791  0.00  0.00     0.146 A 
ATOM      6  C4   11 d          -9.862 208.745 115.281  0.00  0.00     0.289 A 
ATOM      7  N2   11 d          -8.898 208.042 116.226  0.00  0.00    -0.054 N 
ATOM      8  C5   11 d          -9.359 208.063 117.667  0.00  0.00     0.262 C 
ATOM      9  C6   11 d          -8.308 207.515 118.638  0.00  0.00     0.195 C 
ATOM     10  O2   11 d          -7.059 208.222 118.460  0.00  0.00    -0.388 OA
ATOM     11  C7   11 d          -6.533 208.044 117.124  0.00  0.00     0.195 C 
ATOM     12  C8   11 d          -7.516 208.650 116.120  0.00  0.00     0.262 C 
ATOM     13  C9   11 d         -13.113 207.361 113.558  0.00  0.00     0.045 A 
ATOM     14  C10  11 d         -13.461 207.102 112.205  0.00  0.00     0.037 A 
ATOM     15  C11  11 d         -14.720 206.581 111.841  0.00  0.00    -0.060 A 
ATOM     16  C12  11 d         -15.686 206.367 112.833  0.00  0.00     0.007 A 
ATOM     17  C13  11 d         -15.377 206.610 114.173  0.00  0.00     0.003 A 
ATOM     18  C14  11 d         -14.111 207.094 114.531  0.00  0.00     0.030 A 
ATOM     19  C15  11 d         -15.086 206.423 110.389  0.00  0.00     0.048 C 
ATOM     20  O3   11 d         -11.959 208.088 116.303  0.00  0.00    -0.270 OA
ATOM     21  H4   11 d          -8.832 207.011 115.928  0.00  0.00     0.281 HD
ENDROOT
TORSDOF 0
ENDMDL
MODEL 4
REMARK VINA RESULT:      -8.1      3.547      7.167
REMARK  0 active torsions:
REMARK  status: ('A' for Active; 'I' for Inactive)
ROOT
ATOM      1  C1   11 d         -13.499 206.469 115.311  0.00  0.00     0.262 A 
ATOM      2  N1   11 d         -12.325 207.224 115.049  0.00  0.00    -0.251 N 
ATOM      3  C2   11 d         -11.944 207.712 116.321  0.00  0.00     0.233 A 
ATOM      4  O1   11 d         -10.931 208.450 116.554  0.00  0.00    -0.273 OA
ATOM      5  C3   11 d         -12.830 207.274 117.429  0.00  0.00     0.146 A 
ATOM      6  C4   11 d         -13.941 206.441 116.755  0.00  0.00     0.289 A 
ATOM      7  N2   11 d         -14.170 205.069 117.374  0.00  0.00    -0.054 N 
ATOM      8  C5   11 d         -15.215 204.255 116.642  0.00  0.00     0.262 C 
ATOM      9  C6   11 d         -15.572 202.952 117.367  0.00  0.00     0.195 C 
ATOM     10  O2   11 d         -15.966 203.240 118.728  0.00  0.00    -0.388 OA
ATOM     11  C7   11 d         -14.891 203.857 119.474  0.00  0.00     0.195 C 
ATOM     12  C8   11 d         -14.552 205.204 118.832  0.00  0.00     0.262 C 
ATOM     13  C9   11 d         -11.644 207.455 113.730  0.00  0.00     0.045 A 
ATOM     14  C10  11 d         -10.476 208.256 113.623  0.00  0.00     0.037 A 
ATOM     15  C11  11 d          -9.816 208.459 112.393  0.00  0.00    -0.060 A 
ATOM     16  C12  11 d         -10.359 207.909 111.225  0.00  0.00     0.007 A 
ATOM     17  C13  11 d         -11.506 207.116 111.294  0.00  0.00     0.003 A 
ATOM     18  C14  11 d         -12.136 206.888 112.526  0.00  0.00     0.030 A 
ATOM     19  C15  11 d          -8.644 209.401 112.306  0.00  0.00     0.048 C 
ATOM     20  O3   11 d         -14.167 205.855 114.414  0.00  0.00    -0.270 OA
ATOM     21  H4   11 d         -13.246 204.521 117.321  0.00  0.00     0.281 HD
ENDROOT
TORSDOF 0
ENDMDL
MODEL 5
REMARK VINA RESULT:      -8.0      4.430      5.989
REMARK  0 active torsions:
REMARK  status: ('A' for Active; 'I' for Inactive)
ROOT
ATOM      1  C1   11 d         -12.874 205.622 115.028  0.00  0.00     0.262 A 
ATOM      2  N1   11 d         -13.731 205.962 113.947  0.00  0.00    -0.251 N 
ATOM      3  C2   11 d         -15.030 205.753 114.467  0.00  0.00     0.233 A 
ATOM      4  O1   11 d         -16.117 205.935 113.826  0.00  0.00    -0.273 OA
ATOM      5  C3   11 d         -15.054 205.304 115.881  0.00  0.00     0.146 A 
ATOM      6  C4   11 d         -13.571 205.167 116.288  0.00  0.00     0.289 A 
ATOM      7  N2   11 d         -13.196 205.888 117.576  0.00  0.00    -0.054 N 
ATOM      8  C5   11 d         -11.723 205.791 117.902  0.00  0.00     0.262 C 
ATOM      9  C6   11 d         -11.378 206.361 119.283  0.00  0.00     0.195 C 
ATOM     10  O2   11 d         -12.199 205.729 120.293  0.00  0.00    -0.388 OA
ATOM     11  C7   11 d         -13.605 205.983 120.070  0.00  0.00     0.195 C 
ATOM     12  C8   11 d         -14.016 205.361 118.734  0.00  0.00     0.262 C 
ATOM     13  C9   11 d         -13.351 206.433 112.573  0.00  0.00     0.045 A 
ATOM     14  C10  11 d         -14.330 206.720 111.584  0.00  0.00     0.037 A 
ATOM     15  C11  11 d         -13.984 207.185 110.299  0.00  0.00    -0.060 A 
ATOM     16  C12  11 d         -12.631 207.311 109.956  0.00  0.00     0.007 A 
ATOM     17  C13  11 d         -11.642 207.038 110.905  0.00  0.00     0.003 A 
ATOM     18  C14  11 d         -11.995 206.610 112.192  0.00  0.00     0.030 A 
ATOM     19  C15  11 d         -15.045 207.374 109.248  0.00  0.00     0.048 C 
ATOM     20  O3   11 d         -11.600 205.673 114.971  0.00  0.00    -0.270 OA
ATOM     21  H4   11 d         -13.427 206.932 117.453  0.00  0.00     0.281 HD
ENDROOT
TORSDOF 0
ENDMDL
MODEL 6
REMARK VINA RESULT:      -8.0      1.860      3.408
REMARK  0 active torsions:
REMARK  status: ('A' for Active; 'I' for Inactive)
ROOT
ATOM      1  C1   11 d         -11.283 207.265 112.654  0.00  0.00     0.262 A 
ATOM      2  N1   11 d         -12.674 207.144 112.915  0.00  0.00    -0.251 N 
ATOM      3  C2   11 d         -12.755 207.148 114.328  0.00  0.00     0.233 A 
ATOM      4  O1   11 d         -13.833 207.054 115.004  0.00  0.00    -0.273 OA
ATOM      5  C3   11 d         -11.445 207.295 115.011  0.00  0.00     0.146 A 
ATOM      6  C4   11 d         -10.399 207.340 113.877  0.00  0.00     0.289 A 
ATOM      7  N2   11 d          -9.433 208.514 113.950  0.00  0.00    -0.054 N 
ATOM      8  C5   11 d          -8.471 208.564 112.784  0.00  0.00     0.262 C 
ATOM      9  C6   11 d          -7.387 209.636 112.949  0.00  0.00     0.195 C 
ATOM     10  O2   11 d          -6.701 209.450 114.209  0.00  0.00    -0.388 OA
ATOM     11  C7   11 d          -7.604 209.585 115.331  0.00  0.00     0.195 C 
ATOM     12  C8   11 d          -8.661 208.482 115.252  0.00  0.00     0.262 C 
ATOM     13  C9   11 d         -13.799 207.034 111.927  0.00  0.00     0.045 A 
ATOM     14  C10  11 d         -15.150 206.901 112.344  0.00  0.00     0.037 A 
ATOM     15  C11  11 d         -16.216 206.821 111.423  0.00  0.00    -0.060 A 
ATOM     16  C12  11 d         -15.936 206.810 110.051  0.00  0.00     0.007 A 
ATOM     17  C13  11 d         -14.618 206.941 109.606  0.00  0.00     0.003 A 
ATOM     18  C14  11 d         -13.568 207.056 110.526  0.00  0.00     0.030 A 
ATOM     19  C15  11 d         -17.620 206.572 111.906  0.00  0.00     0.048 C 
ATOM     20  O3   11 d         -10.778 207.297 111.483  0.00  0.00    -0.270 OA
ATOM     21  H4   11 d         -10.009 209.422 113.927  0.00  0.00     0.281 HD
ENDROOT
TORSDOF 0
ENDMDL
MODEL 7
REMARK VINA RESULT:      -7.9      1.849      7.309
REMARK  0 active torsions:
REMARK  status: ('A' for Active; 'I' for Inactive)
ROOT
ATOM      1  C1   11 d         -10.998 207.993 112.624  0.00  0.00     0.262 A 
ATOM      2  N1   11 d          -9.990 208.300 113.577  0.00  0.00    -0.251 N 
ATOM      3  C2   11 d         -10.702 208.431 114.792  0.00  0.00     0.233 A 
ATOM      4  O1   11 d         -10.183 208.711 115.923  0.00  0.00    -0.273 OA
ATOM      5  C3   11 d         -12.162 208.191 114.671  0.00  0.00     0.146 A 
ATOM      6  C4   11 d         -12.405 207.921 113.170  0.00  0.00     0.289 A 
ATOM      7  N2   11 d         -13.191 206.653 112.872  0.00  0.00    -0.054 N 
ATOM      8  C5   11 d         -13.346 206.386 111.391  0.00  0.00     0.262 C 
ATOM      9  C6   11 d         -14.285 205.212 111.091  0.00  0.00     0.195 C 
ATOM     10  O2   11 d         -15.561 205.427 111.738  0.00  0.00    -0.388 OA
ATOM     11  C7   11 d         -15.421 205.499 113.176  0.00  0.00     0.195 C 
ATOM     12  C8   11 d         -14.553 206.708 113.530  0.00  0.00     0.262 C 
ATOM     13  C9   11 d          -8.514 208.454 113.351  0.00  0.00     0.045 A 
ATOM     14  C10  11 d          -7.626 208.783 114.409  0.00  0.00     0.037 A 
ATOM     15  C11  11 d          -6.235 208.907 114.211  0.00  0.00    -0.060 A 
ATOM     16  C12  11 d          -5.711 208.762 112.920  0.00  0.00     0.007 A 
ATOM     17  C13  11 d          -6.556 208.437 111.856  0.00  0.00     0.003 A 
ATOM     18  C14  11 d          -7.932 208.281 112.067  0.00  0.00     0.030 A 
ATOM     19  C15  11 d          -5.345 209.362 115.337  0.00  0.00     0.048 C 
ATOM     20  O3   11 d         -10.771 207.797 111.385  0.00  0.00    -0.270 OA
ATOM     21  H4   11 d         -12.653 205.821 113.290  0.00  0.00     0.281 HD
ENDROOT
TORSDOF 0
ENDMDL
MODEL 8
REMARK VINA RESULT:      -7.9      4.043      7.178
REMARK  0 active torsions:
REMARK  status: ('A' for Active; 'I' for Inactive)
ROOT
ATOM      1  C1   11 d         -13.927 206.187 115.987  0.00  0.00     0.262 A 
ATOM      2  N1   11 d         -12.830 206.890 115.420  0.00  0.00    -0.251 N 
ATOM      3  C2   11 d         -12.244 207.550 116.525  0.00  0.00     0.233 A 
ATOM      4  O1   11 d         -11.219 208.308 116.472  0.00  0.00    -0.273 OA
ATOM      5  C3   11 d         -12.916 207.281 117.821  0.00  0.00     0.146 A 
ATOM      6  C4   11 d         -14.111 206.367 117.475  0.00  0.00     0.289 A 
ATOM      7  N2   11 d         -14.205 205.099 118.311  0.00  0.00    -0.054 N 
ATOM      8  C5   11 d         -15.345 204.196 117.894  0.00  0.00     0.262 C 
ATOM      9  C6   11 d         -15.548 203.012 118.846  0.00  0.00     0.195 C 
ATOM     10  O2   11 d         -15.706 203.492 120.200  0.00  0.00    -0.388 OA
ATOM     11  C7   11 d         -14.529 204.201 120.653  0.00  0.00     0.195 C 
ATOM     12  C8   11 d         -14.331 205.441 119.780  0.00  0.00     0.262 C 
ATOM     13  C9   11 d         -12.392 206.927 113.984  0.00  0.00     0.045 A 
ATOM     14  C10  11 d         -11.274 207.696 113.563  0.00  0.00     0.037 A 
ATOM     15  C11  11 d         -10.842 207.719 112.221  0.00  0.00    -0.060 A 
ATOM     16  C12  11 d         -11.568 207.012 111.255  0.00  0.00     0.007 A 
ATOM     17  C13  11 d         -12.672 206.244 111.634  0.00  0.00     0.003 A 
ATOM     18  C14  11 d         -13.075 206.198 112.975  0.00  0.00     0.030 A 
ATOM     19  C15  11 d          -9.720 208.631 111.800  0.00  0.00     0.048 C 
ATOM     20  O3   11 d         -14.729 205.457 115.315  0.00  0.00    -0.270 OA
ATOM     21  H4   11 d         -13.294 204.542 118.175  0.00  0.00     0.281 HD
ENDROOT
TORSDOF 0
ENDMDL
MODEL 9
REMARK VINA RESULT:      -7.5      2.921      4.177
REMARK  0 active torsions:
REMARK  status: ('A' for Active; 'I' for Inactive)
ROOT
ATOM      1  C1   11 d         -11.711 207.621 115.503  0.00  0.00     0.262 A 
ATOM      2  N1   11 d         -12.652 206.557 115.495  0.00  0.00    -0.251 N 
ATOM      3  C2   11 d         -12.836 206.278 114.120  0.00  0.00     0.233 A 
ATOM      4  O1   11 d         -13.612 205.382 113.648  0.00  0.00    -0.273 OA
ATOM      5  C3   11 d         -12.016 207.121 113.214  0.00  0.00     0.146 A 
ATOM      6  C4   11 d         -11.252 208.089 114.142  0.00  0.00     0.289 A 
ATOM      7  N2   11 d          -9.749 208.141 113.908  0.00  0.00    -0.054 N 
ATOM      8  C5   11 d          -9.028 209.045 114.883  0.00  0.00     0.262 C 
ATOM      9  C6   11 d          -7.546 209.236 114.537  0.00  0.00     0.195 C 
ATOM     10  O2   11 d          -7.417 209.699 113.172  0.00  0.00    -0.388 OA
ATOM     11  C7   11 d          -7.950 208.737 112.232  0.00  0.00     0.195 C 
ATOM     12  C8   11 d          -9.449 208.572 112.488  0.00  0.00     0.262 C 
ATOM     13  C9   11 d         -13.304 205.883 116.668  0.00  0.00     0.045 A 
ATOM     14  C10  11 d         -14.246 204.834 116.500  0.00  0.00     0.037 A 
ATOM     15  C11  11 d         -14.846 204.181 117.596  0.00  0.00    -0.060 A 
ATOM     16  C12  11 d         -14.554 204.614 118.896  0.00  0.00     0.007 A 
ATOM     17  C13  11 d         -13.630 205.642 119.098  0.00  0.00     0.003 A 
ATOM     18  C14  11 d         -13.012 206.264 118.005  0.00  0.00     0.030 A 
ATOM     19  C15  11 d         -15.919 203.148 117.371  0.00  0.00     0.048 C 
ATOM     20  O3   11 d         -11.272 208.176 116.564  0.00  0.00    -0.270 OA
ATOM     21  H4   11 d          -9.356 207.149 114.044  0.00  0.00     0.281 HD
ENDROOT
TORSDOF 0
ENDMDL
MODEL 10
REMARK VINA RESULT:      -7.5      1.604      2.210
REMARK  0 active torsions:
REMARK  status: ('A' for Active; 'I' for Inactive)
ROOT
ATOM      1  C1   11 d          -8.120 208.901 114.302  0.00  0.00     0.262 A 
ATOM      2  N1   11 d          -9.258 208.507 113.548  0.00  0.00    -0.251 N 
ATOM      3  C2   11 d          -8.786 208.477 112.215  0.00  0.00     0.233 A 
ATOM      4  O1   11 d          -9.486 208.174 111.192  0.00  0.00    -0.273 OA
ATOM      5  C3   11 d          -7.349 208.821 112.070  0.00  0.00     0.146 A 
ATOM      6  C4   11 d          -6.867 209.156 113.498  0.00  0.00     0.289 A 
ATOM      7  N2   11 d          -5.611 208.417 113.935  0.00  0.00    -0.054 N 
ATOM      8  C5   11 d          -5.212 208.717 115.363  0.00  0.00     0.262 C 
ATOM      9  C6   11 d          -3.855 208.115 115.744  0.00  0.00     0.195 C 
ATOM     10  O2   11 d          -2.847 208.543 114.799  0.00  0.00    -0.388 OA
ATOM     11  C7   11 d          -3.148 208.090 113.458  0.00  0.00     0.195 C 
ATOM     12  C8   11 d          -4.461 208.731 113.003  0.00  0.00     0.262 C 
ATOM     13  C9   11 d         -10.640 208.195 114.045  0.00  0.00     0.045 A 
ATOM     14  C10  11 d         -11.688 207.828 113.159  0.00  0.00     0.037 A 
ATOM     15  C11  11 d         -12.982 207.511 113.619  0.00  0.00    -0.060 A 
ATOM     16  C12  11 d         -13.270 207.618 114.986  0.00  0.00     0.007 A 
ATOM     17  C13  11 d         -12.263 207.976 115.885  0.00  0.00     0.003 A 
ATOM     18  C14  11 d         -10.969 208.255 115.425  0.00  0.00     0.030 A 
ATOM     19  C15  11 d         -14.090 207.231 112.638  0.00  0.00     0.048 C 
ATOM     20  O3   11 d          -8.122 209.051 115.569  0.00  0.00    -0.270 OA
ATOM     21  H4   11 d          -5.808 207.360 113.876  0.00  0.00     0.281 HD
ENDROOT
TORSDOF 0
ENDMDL
MODEL 11
REMARK VINA RESULT:      -7.3      3.120      7.242
REMARK  0 active torsions:
REMARK  status: ('A' for Active; 'I' for Inactive)
ROOT
ATOM      1  C1   11 d         -12.611 206.170 114.550  0.00  0.00     0.262 A 
ATOM      2  N1   11 d         -11.562 206.896 115.177  0.00  0.00    -0.251 N 
ATOM      3  C2   11 d         -11.003 207.658 114.124  0.00  0.00     0.233 A 
ATOM      4  O1   11 d         -10.019 208.461 114.239  0.00  0.00    -0.273 OA
ATOM      5  C3   11 d         -11.675 207.470 112.814  0.00  0.00     0.146 A 
ATOM      6  C4   11 d         -12.773 206.415 113.069  0.00  0.00     0.289 A 
ATOM      7  N2   11 d         -14.161 206.812 112.589  0.00  0.00    -0.054 N 
ATOM      8  C5   11 d         -15.220 205.785 112.921  0.00  0.00     0.262 C 
ATOM      9  C6   11 d         -16.579 206.100 112.283  0.00  0.00     0.195 C 
ATOM     10  O2   11 d         -16.422 206.275 110.856  0.00  0.00    -0.388 OA
ATOM     11  C7   11 d         -15.544 207.383 110.549  0.00  0.00     0.195 C 
ATOM     12  C8   11 d         -14.149 207.077 111.098  0.00  0.00     0.262 C 
ATOM     13  C9   11 d         -11.142 206.865 116.618  0.00  0.00     0.045 A 
ATOM     14  C10  11 d         -10.053 207.642 117.096  0.00  0.00     0.037 A 
ATOM     15  C11  11 d          -9.666 207.636 118.452  0.00  0.00    -0.060 A 
ATOM     16  C12  11 d         -10.332 206.794 119.352  0.00  0.00     0.007 A 
ATOM     17  C13  11 d         -11.407 206.017 118.915  0.00  0.00     0.003 A 
ATOM     18  C14  11 d         -11.809 206.054 117.573  0.00  0.00     0.030 A 
ATOM     19  C15  11 d          -8.441 208.391 118.895  0.00  0.00     0.048 C 
ATOM     20  O3   11 d         -13.374 205.351 115.162  0.00  0.00    -0.270 OA
ATOM     21  H4   11 d         -14.437 207.726 113.086  0.00  0.00     0.281 HD
ENDROOT
TORSDOF 0
ENDMDL
MODEL 12
REMARK VINA RESULT:      -7.2      2.160      7.116
REMARK  0 active torsions:
REMARK  status: ('A' for Active; 'I' for Inactive)
ROOT
ATOM      1  C1   11 d         -11.919 206.777 113.323  0.00  0.00     0.262 A 
ATOM      2  N1   11 d         -10.761 207.583 113.163  0.00  0.00    -0.251 N 
ATOM      3  C2   11 d         -10.684 207.792 111.767  0.00  0.00     0.233 A 
ATOM      4  O1   11 d          -9.781 208.469 111.172  0.00  0.00    -0.273 OA
ATOM      5  C3   11 d         -11.784 207.160 110.996  0.00  0.00     0.146 A 
ATOM      6  C4   11 d         -12.638 206.415 112.045  0.00  0.00     0.289 A 
ATOM      7  N2   11 d         -14.127 206.723 111.987  0.00  0.00    -0.054 N 
ATOM      8  C5   11 d         -14.919 206.032 113.074  0.00  0.00     0.262 C 
ATOM      9  C6   11 d         -16.434 206.198 112.908  0.00  0.00     0.195 C 
ATOM     10  O2   11 d         -16.833 205.763 111.588  0.00  0.00    -0.388 OA
ATOM     11  C7   11 d         -16.205 206.556 110.554  0.00  0.00     0.195 C 
ATOM     12  C8   11 d         -14.690 206.359 110.629  0.00  0.00     0.262 C 
ATOM     13  C9   11 d          -9.831 208.096 114.226  0.00  0.00     0.045 A 
ATOM     14  C10  11 d          -8.694 208.885 113.907  0.00  0.00     0.037 A 
ATOM     15  C11  11 d          -7.829 209.390 114.899  0.00  0.00    -0.060 A 
ATOM     16  C12  11 d          -8.056 209.056 116.241  0.00  0.00     0.007 A 
ATOM     17  C13  11 d          -9.165 208.283 116.590  0.00  0.00     0.003 A 
ATOM     18  C14  11 d         -10.041 207.814 115.601  0.00  0.00     0.030 A 
ATOM     19  C15  11 d          -6.577 210.131 114.510  0.00  0.00     0.048 C 
ATOM     20  O3   11 d         -12.345 206.357 114.450  0.00  0.00    -0.270 OA
ATOM     21  H4   11 d         -14.254 207.783 112.126  0.00  0.00     0.281 HD
ENDROOT
TORSDOF 0
ENDMDL
MODEL 13
REMARK VINA RESULT:      -7.2      3.837      7.682
REMARK  0 active torsions:
REMARK  status: ('A' for Active; 'I' for Inactive)
ROOT
ATOM      1  C1   11 d         -12.763 206.950 115.414  0.00  0.00     0.262 A 
ATOM      2  N1   11 d         -12.569 206.313 116.668  0.00  0.00    -0.251 N 
ATOM      3  C2   11 d         -13.670 205.431 116.774  0.00  0.00     0.233 A 
ATOM      4  O1   11 d         -13.899 204.653 117.759  0.00  0.00    -0.273 OA
ATOM      5  C3   11 d         -14.580 205.452 115.601  0.00  0.00     0.146 A 
ATOM      6  C4   11 d         -13.998 206.525 114.655  0.00  0.00     0.289 A 
ATOM      7  N2   11 d         -13.793 206.063 113.220  0.00  0.00    -0.054 N 
ATOM      8  C5   11 d         -13.155 207.117 112.343  0.00  0.00     0.262 C 
ATOM      9  C6   11 d         -13.114 206.718 110.863  0.00  0.00     0.195 C 
ATOM     10  O2   11 d         -14.443 206.371 110.411  0.00  0.00    -0.388 OA
ATOM     11  C7   11 d         -14.973 205.238 111.140  0.00  0.00     0.195 C 
ATOM     12  C8   11 d         -15.108 205.618 112.615  0.00  0.00     0.262 C 
ATOM     13  C9   11 d         -11.457 206.523 117.656  0.00  0.00     0.045 A 
ATOM     14  C10  11 d         -11.408 205.817 118.887  0.00  0.00     0.037 A 
ATOM     15  C11  11 d         -10.356 205.991 119.811  0.00  0.00    -0.060 A 
ATOM     16  C12  11 d          -9.356 206.934 119.540  0.00  0.00     0.007 A 
ATOM     17  C13  11 d          -9.373 207.645 118.338  0.00  0.00     0.003 A 
ATOM     18  C14  11 d         -10.403 207.441 117.409  0.00  0.00     0.030 A 
ATOM     19  C15  11 d         -10.399 205.304 121.150  0.00  0.00     0.048 C 
ATOM     20  O3   11 d         -11.977 207.834 114.935  0.00  0.00    -0.270 OA
ATOM     21  H4   11 d         -13.130 205.216 113.233  0.00  0.00     0.281 HD
ENDROOT
TORSDOF 0
ENDMDL
MODEL 14
REMARK VINA RESULT:      -7.1      1.818      7.448
REMARK  0 active torsions:
REMARK  status: ('A' for Active; 'I' for Inactive)
ROOT
ATOM      1  C1   11 d          -9.922 208.681 114.320  0.00  0.00     0.262 A 
ATOM      2  N1   11 d          -8.928 208.731 115.334  0.00  0.00    -0.251 N 
ATOM      3  C2   11 d          -9.626 208.373 116.511  0.00  0.00     0.233 A 
ATOM      4  O1   11 d          -9.114 208.294 117.676  0.00  0.00    -0.273 OA
ATOM      5  C3   11 d         -11.062 208.062 116.295  0.00  0.00     0.146 A 
ATOM      6  C4   11 d         -11.307 208.302 114.789  0.00  0.00     0.289 A 
ATOM      7  N2   11 d         -11.984 207.149 114.063  0.00  0.00    -0.054 N 
ATOM      8  C5   11 d         -12.141 207.393 112.579  0.00  0.00     0.262 C 
ATOM      9  C6   11 d         -12.978 206.314 111.881  0.00  0.00     0.195 C 
ATOM     10  O2   11 d         -14.256 206.180 112.546  0.00  0.00    -0.388 OA
ATOM     11  C7   11 d         -14.098 205.767 113.923  0.00  0.00     0.195 C 
ATOM     12  C8   11 d         -13.333 206.853 114.682  0.00  0.00     0.262 C 
ATOM     13  C9   11 d          -7.475 209.084 115.194  0.00  0.00     0.045 A 
ATOM     14  C10  11 d          -6.601 209.107 116.313  0.00  0.00     0.037 A 
ATOM     15  C11  11 d          -5.230 209.415 116.188  0.00  0.00    -0.060 A 
ATOM     16  C12  11 d          -4.719 209.769 114.933  0.00  0.00     0.007 A 
ATOM     17  C13  11 d          -5.550 209.754 113.811  0.00  0.00     0.003 A 
ATOM     18  C14  11 d          -6.904 209.414 113.937  0.00  0.00     0.030 A 
ATOM     19  C15  11 d          -4.363 209.533 117.413  0.00  0.00     0.048 C 
ATOM     20  O3   11 d          -9.701 208.943 113.091  0.00  0.00    -0.270 OA
ATOM     21  H4   11 d         -11.367 206.274 114.178  0.00  0.00     0.281 HD
ENDROOT
TORSDOF 0
ENDMDL
MODEL 15
REMARK VINA RESULT:      -7.0      1.946      7.561
REMARK  0 active torsions:
REMARK  status: ('A' for Active; 'I' for Inactive)
ROOT
ATOM      1  C1   11 d          -8.022 208.569 113.091  0.00  0.00     0.262 A 
ATOM      2  N1   11 d          -6.927 208.517 113.995  0.00  0.00    -0.251 N 
ATOM      3  C2   11 d          -7.523 208.724 115.261  0.00  0.00     0.233 A 
ATOM      4  O1   11 d          -6.898 208.759 116.373  0.00  0.00    -0.273 OA
ATOM      5  C3   11 d          -8.998 208.887 115.219  0.00  0.00     0.146 A 
ATOM      6  C4   11 d          -9.370 208.822 113.722  0.00  0.00     0.289 A 
ATOM      7  N2   11 d         -10.479 207.836 113.385  0.00  0.00    -0.054 N 
ATOM      8  C5   11 d         -10.765 207.748 111.903  0.00  0.00     0.262 C 
ATOM      9  C6   11 d         -11.996 206.893 111.581  0.00  0.00     0.195 C 
ATOM     10  O2   11 d         -13.138 207.378 112.325  0.00  0.00    -0.388 OA
ATOM     11  C7   11 d         -12.921 207.286 113.752  0.00  0.00     0.195 C 
ATOM     12  C8   11 d         -11.747 208.189 114.134  0.00  0.00     0.262 C 
ATOM     13  C9   11 d          -5.474 208.297 113.684  0.00  0.00     0.045 A 
ATOM     14  C10  11 d          -4.484 208.288 114.703  0.00  0.00     0.037 A 
ATOM     15  C11  11 d          -3.122 208.059 114.423  0.00  0.00    -0.060 A 
ATOM     16  C12  11 d          -2.713 207.894 113.093  0.00  0.00     0.007 A 
ATOM     17  C13  11 d          -3.660 207.896 112.066  0.00  0.00     0.003 A 
ATOM     18  C14  11 d          -5.018 208.089 112.356  0.00  0.00     0.030 A 
ATOM     19  C15  11 d          -2.093 208.165 115.517  0.00  0.00     0.048 C 
ATOM     20  O3   11 d          -7.910 208.428 111.828  0.00  0.00    -0.270 OA
ATOM     21  H4   11 d         -10.165 206.858 113.707  0.00  0.00     0.281 HD
ENDROOT
TORSDOF 0
ENDMDL
MODEL 16
REMARK VINA RESULT:      -6.8      7.999     10.538
REMARK  0 active torsions:
REMARK  status: ('A' for Active; 'I' for Inactive)
ROOT
ATOM      1  C1   11 d         -15.832 204.336 120.014  0.00  0.00     0.262 A 
ATOM      2  N1   11 d         -16.548 204.732 121.176  0.00  0.00    -0.251 N 
ATOM      3  C2   11 d         -15.723 205.721 121.761  0.00  0.00     0.233 A 
ATOM      4  O1   11 d         -15.982 206.353 122.839  0.00  0.00    -0.273 OA
ATOM      5  C3   11 d         -14.483 206.008 120.997  0.00  0.00     0.146 A 
ATOM      6  C4   11 d         -14.511 205.035 119.798  0.00  0.00     0.289 A 
ATOM      7  N2   11 d         -14.299 205.692 118.442  0.00  0.00    -0.054 N 
ATOM      8  C5   11 d         -14.405 204.720 117.289  0.00  0.00     0.262 C 
ATOM      9  C6   11 d         -14.016 205.343 115.943  0.00  0.00     0.195 C 
ATOM     10  O2   11 d         -12.697 205.929 116.038  0.00  0.00    -0.388 OA
ATOM     11  C7   11 d         -12.654 206.988 117.022  0.00  0.00     0.195 C 
ATOM     12  C8   11 d         -12.959 206.396 118.400  0.00  0.00     0.262 C 
ATOM     13  C9   11 d         -17.870 204.222 121.672  0.00  0.00     0.045 A 
ATOM     14  C10  11 d         -18.457 204.708 122.871  0.00  0.00     0.037 A 
ATOM     15  C11  11 d         -19.709 204.252 123.332  0.00  0.00    -0.060 A 
ATOM     16  C12  11 d         -20.375 203.243 122.623  0.00  0.00     0.007 A 
ATOM     17  C13  11 d         -19.827 202.743 121.439  0.00  0.00     0.003 A 
ATOM     18  C14  11 d         -18.599 203.227 120.968  0.00  0.00     0.030 A 
ATOM     19  C15  11 d         -20.244 204.713 124.661  0.00  0.00     0.048 C 
ATOM     20  O3   11 d         -16.239 203.447 119.195  0.00  0.00    -0.270 OA
ATOM     21  H4   11 d         -15.068 206.432 118.306  0.00  0.00     0.281 HD
ENDROOT
TORSDOF 0
ENDMDL
MODEL 17
REMARK VINA RESULT:      -6.7      2.965      4.691
REMARK  0 active torsions:
REMARK  status: ('A' for Active; 'I' for Inactive)
ROOT
ATOM      1  C1   11 d          -8.499 208.290 117.075  0.00  0.00     0.262 A 
ATOM      2  N1   11 d          -9.906 208.180 116.911  0.00  0.00    -0.251 N 
ATOM      3  C2   11 d         -10.402 208.182 118.236  0.00  0.00     0.233 A 
ATOM      4  O1   11 d         -11.632 208.096 118.562  0.00  0.00    -0.273 OA
ATOM      5  C3   11 d          -9.353 208.316 119.278  0.00  0.00     0.146 A 
ATOM      6  C4   11 d          -8.017 208.356 118.505  0.00  0.00     0.289 A 
ATOM      7  N2   11 d          -7.107 209.521 118.867  0.00  0.00    -0.054 N 
ATOM      8  C5   11 d          -5.843 209.566 118.039  0.00  0.00     0.262 C 
ATOM      9  C6   11 d          -4.849 210.629 118.522  0.00  0.00     0.195 C 
ATOM     10  O2   11 d          -4.569 210.434 119.928  0.00  0.00    -0.388 OA
ATOM     11  C7   11 d          -5.763 210.575 120.732  0.00  0.00     0.195 C 
ATOM     12  C8   11 d          -6.757 209.481 120.339  0.00  0.00     0.262 C 
ATOM     13  C9   11 d         -10.688 208.082 115.633  0.00  0.00     0.045 A 
ATOM     14  C10  11 d         -12.103 207.959 115.631  0.00  0.00     0.037 A 
ATOM     15  C11  11 d         -12.848 207.890 114.435  0.00  0.00    -0.060 A 
ATOM     16  C12  11 d         -12.174 207.880 113.207  0.00  0.00     0.007 A 
ATOM     17  C13  11 d         -10.783 208.001 113.173  0.00  0.00     0.003 A 
ATOM     18  C14  11 d         -10.052 208.105 114.364  0.00  0.00     0.030 A 
ATOM     19  C15  11 d         -14.334 207.651 114.479  0.00  0.00     0.048 C 
ATOM     20  O3   11 d          -7.669 208.321 116.106  0.00  0.00    -0.270 OA
ATOM     21  H4   11 d          -7.644 210.435 118.678  0.00  0.00     0.281 HD
ENDROOT
TORSDOF 0
ENDMDL
MODEL 18
REMARK VINA RESULT:      -6.7      2.775      7.427
REMARK  0 active torsions:
REMARK  status: ('A' for Active; 'I' for Inactive)
ROOT
ATOM      1  C1   11 d         -10.797 208.176 115.507  0.00  0.00     0.262 A 
ATOM      2  N1   11 d         -10.651 207.969 116.905  0.00  0.00    -0.251 N 
ATOM      3  C2   11 d         -11.969 207.708 117.349  0.00  0.00     0.233 A 
ATOM      4  O1   11 d         -12.306 207.468 118.555  0.00  0.00    -0.273 OA
ATOM      5  C3   11 d         -12.986 207.714 116.268  0.00  0.00     0.146 A 
ATOM      6  C4   11 d         -12.209 208.072 114.982  0.00  0.00     0.289 A 
ATOM      7  N2   11 d         -12.437 207.122 113.816  0.00  0.00    -0.054 N 
ATOM      8  C5   11 d         -11.605 207.464 112.600  0.00  0.00     0.262 C 
ATOM      9  C6   11 d         -11.965 206.619 111.372  0.00  0.00     0.195 C 
ATOM     10  O2   11 d         -13.383 206.723 111.105  0.00  0.00    -0.388 OA
ATOM     11  C7   11 d         -14.171 206.220 112.209  0.00  0.00     0.195 C 
ATOM     12  C8   11 d         -13.904 207.085 113.442  0.00  0.00     0.262 C 
ATOM     13  C9   11 d          -9.394 208.017 117.726  0.00  0.00     0.045 A 
ATOM     14  C10  11 d          -9.409 207.804 119.130  0.00  0.00     0.037 A 
ATOM     15  C11  11 d          -8.231 207.824 119.904  0.00  0.00    -0.060 A 
ATOM     16  C12  11 d          -7.009 208.123 119.287  0.00  0.00     0.007 A 
ATOM     17  C13  11 d          -6.958 208.337 117.908  0.00  0.00     0.003 A 
ATOM     18  C14  11 d          -8.128 208.281 117.139  0.00  0.00     0.030 A 
ATOM     19  C15  11 d          -8.305 207.700 121.403  0.00  0.00     0.048 C 
ATOM     20  O3   11 d          -9.829 208.445 114.722  0.00  0.00    -0.270 OA
ATOM     21  H4   11 d         -12.149 206.133 114.130  0.00  0.00     0.281 HD
ENDROOT
TORSDOF 0
ENDMDL
MODEL 19
REMARK VINA RESULT:      -6.6      5.120      7.376
REMARK  0 active torsions:
REMARK  status: ('A' for Active; 'I' for Inactive)
ROOT
ATOM      1  C1   11 d         -13.063 205.207 117.565  0.00  0.00     0.262 A 
ATOM      2  N1   11 d         -13.941 205.433 118.658  0.00  0.00    -0.251 N 
ATOM      3  C2   11 d         -13.588 206.725 119.114  0.00  0.00     0.233 A 
ATOM      4  O1   11 d         -14.128 207.332 120.097  0.00  0.00    -0.273 OA
ATOM      5  C3   11 d         -12.507 207.372 118.329  0.00  0.00     0.146 A 
ATOM      6  C4   11 d         -12.095 206.328 117.269  0.00  0.00     0.289 A 
ATOM      7  N2   11 d         -12.070 206.850 115.839  0.00  0.00    -0.054 N 
ATOM      8  C5   11 d         -11.733 205.781 114.823  0.00  0.00     0.262 C 
ATOM      9  C6   11 d         -11.533 206.341 113.410  0.00  0.00     0.195 C 
ATOM     10  O2   11 d         -10.542 207.395 113.437  0.00  0.00    -0.388 OA
ATOM     11  C7   11 d         -10.961 208.498 114.273  0.00  0.00     0.195 C 
ATOM     12  C8   11 d         -11.098 208.003 115.714  0.00  0.00     0.262 C 
ATOM     13  C9   11 d         -14.997 204.518 119.207  0.00  0.00     0.045 A 
ATOM     14  C10  11 d         -15.792 204.880 120.327  0.00  0.00     0.037 A 
ATOM     15  C11  11 d         -16.802 204.037 120.835  0.00  0.00    -0.060 A 
ATOM     16  C12  11 d         -16.993 202.774 120.260  0.00  0.00     0.007 A 
ATOM     17  C13  11 d         -16.230 202.386 119.157  0.00  0.00     0.003 A 
ATOM     18  C14  11 d         -15.252 203.243 118.636  0.00  0.00     0.030 A 
ATOM     19  C15  11 d         -17.548 204.414 122.088  0.00  0.00     0.048 C 
ATOM     20  O3   11 d         -13.054 204.139 116.867  0.00  0.00    -0.270 OA
ATOM     21  H4   11 d         -13.053 207.216 115.600  0.00  0.00     0.281 HD
ENDROOT
TORSDOF 0
ENDMDL
MODEL 20
REMARK VINA RESULT:      -6.6      5.433      8.376
REMARK  0 active torsions:
REMARK  status: ('A' for Active; 'I' for Inactive)
ROOT
ATOM      1  C1   11 d         -14.220 204.776 117.102  0.00  0.00     0.262 A 
ATOM      2  N1   11 d         -14.072 204.964 118.503  0.00  0.00    -0.251 N 
ATOM      3  C2   11 d         -12.967 205.841 118.611  0.00  0.00     0.233 A 
ATOM      4  O1   11 d         -12.478 206.279 119.705  0.00  0.00    -0.273 OA
ATOM      5  C3   11 d         -12.393 206.259 117.307  0.00  0.00     0.146 A 
ATOM      6  C4   11 d         -13.218 205.506 116.241  0.00  0.00     0.289 A 
ATOM      7  N2   11 d         -13.780 206.386 115.134  0.00  0.00    -0.054 N 
ATOM      8  C5   11 d         -14.640 205.624 114.150  0.00  0.00     0.262 C 
ATOM      9  C6   11 d         -15.057 206.470 112.941  0.00  0.00     0.195 C 
ATOM     10  O2   11 d         -13.885 207.036 112.310  0.00  0.00    -0.388 OA
ATOM     11  C7   11 d         -13.167 207.911 113.211  0.00  0.00     0.195 C 
ATOM     12  C8   11 d         -12.660 207.091 114.399  0.00  0.00     0.262 C 
ATOM     13  C9   11 d         -14.892 204.373 119.612  0.00  0.00     0.045 A 
ATOM     14  C10  11 d         -14.609 204.644 120.978  0.00  0.00     0.037 A 
ATOM     15  C11  11 d         -15.388 204.112 122.026  0.00  0.00    -0.060 A 
ATOM     16  C12  11 d         -16.440 203.236 121.722  0.00  0.00     0.007 A 
ATOM     17  C13  11 d         -16.746 202.949 120.390  0.00  0.00     0.003 A 
ATOM     18  C14  11 d         -15.989 203.510 119.352  0.00  0.00     0.030 A 
ATOM     19  C15  11 d         -14.989 204.337 123.460  0.00  0.00     0.048 C 
ATOM     20  O3   11 d         -15.117 204.038 116.574  0.00  0.00    -0.270 OA
ATOM     21  H4   11 d         -14.404 207.136 115.588  0.00  0.00     0.281 HD
ENDROOT
TORSDOF 0
ENDMDL
