MODEL 1
REMARK VINA RESULT:      -8.4      0.000      0.000
REMARK  0 active torsions:
REMARK  status: ('A' for Active; 'I' for Inactive)
REMARK       I    between atoms: C11_15  and  N4_17 
ROOT
ATOM      1  C1   11 d         -14.086 207.476 113.581  0.00  0.00     0.204 A 
ATOM      2  C2   11 d         -15.069 207.090 112.544  0.00  0.00     0.123 A 
ATOM      3  O1   11 d         -16.339 206.868 112.793  0.00  0.00    -0.319 OA
ATOM      4  C3   11 d         -16.914 206.560 111.657  0.00  0.00     0.142 A 
ATOM      5  C4   11 d         -16.001 206.575 110.616  0.00  0.00     0.027 A 
ATOM      6  C5   11 d         -14.794 206.920 111.194  0.00  0.00     0.043 A 
ATOM      7  N1   11 d         -12.783 207.703 113.248  0.00  0.00    -0.203 NA
ATOM      8  C6   11 d         -11.876 208.068 114.198  0.00  0.00     0.204 A 
ATOM      9  C7   11 d         -10.466 208.323 113.829  0.00  0.00     0.123 A 
ATOM     10  O2   11 d          -9.542 208.681 114.691  0.00  0.00    -0.319 OA
ATOM     11  C8   11 d          -8.423 208.829 114.028  0.00  0.00     0.142 A 
ATOM     12  C9   11 d          -8.602 208.560 112.683  0.00  0.00     0.027 A 
ATOM     13  C10  11 d          -9.936 208.228 112.551  0.00  0.00     0.043 A 
ATOM     14  N2   11 d         -12.283 208.204 115.490  0.00  0.00    -0.040 NA
ATOM     15  C11  11 d         -13.579 207.979 115.831  0.00  0.00     0.724 A 
ATOM     16  N3   11 d         -14.476 207.616 114.877  0.00  0.00    -0.040 NA
ATOM     17  N4   11 d         -13.982 208.123 117.133  0.00  0.00    -0.231 N 
ATOM     18  H7   11 d         -13.328 208.389 117.831  0.00  0.00     0.174 HD
ATOM     19  H8   11 d         -14.930 207.963 117.382  0.00  0.00     0.174 HD
ENDROOT
TORSDOF 0
ENDMDL
MODEL 2
REMARK VINA RESULT:      -8.3      0.100      5.548
REMARK  0 active torsions:
REMARK  status: ('A' for Active; 'I' for Inactive)
REMARK       I    between atoms: C11_15  and  N4_17 
ROOT
ATOM      1  C1   11 d         -11.826 208.081 114.124  0.00  0.00     0.204 A 
ATOM      2  C2   11 d         -10.421 208.320 113.724  0.00  0.00     0.123 A 
ATOM      3  O1   11 d          -9.472 208.657 114.566  0.00  0.00    -0.319 OA
ATOM      4  C3   11 d          -8.363 208.778 113.880  0.00  0.00     0.142 A 
ATOM      5  C4   11 d          -8.576 208.514 112.538  0.00  0.00     0.027 A 
ATOM      6  C5   11 d          -9.921 208.216 112.434  0.00  0.00     0.043 A 
ATOM      7  N1   11 d         -12.758 207.721 113.196  0.00  0.00    -0.203 NA
ATOM      8  C6   11 d         -14.051 207.491 113.562  0.00  0.00     0.204 A 
ATOM      9  C7   11 d         -15.055 207.090 112.552  0.00  0.00     0.123 A 
ATOM     10  O2   11 d         -16.315 206.849 112.835  0.00  0.00    -0.319 OA
ATOM     11  C8   11 d         -16.911 206.515 111.718  0.00  0.00     0.142 A 
ATOM     12  C9   11 d         -16.025 206.535 110.656  0.00  0.00     0.027 A 
ATOM     13  C10  11 d         -14.813 206.912 111.198  0.00  0.00     0.043 A 
ATOM     14  N2   11 d         -14.408 207.625 114.869  0.00  0.00    -0.040 NA
ATOM     15  C11  11 d         -13.485 207.984 115.801  0.00  0.00     0.724 A 
ATOM     16  N3   11 d         -12.199 208.211 115.427  0.00  0.00    -0.040 NA
ATOM     17  N4   11 d         -13.851 208.111 117.115  0.00  0.00    -0.231 N 
ATOM     18  H7   11 d         -14.791 207.945 117.390  0.00  0.00     0.174 HD
ATOM     19  H8   11 d         -13.177 208.370 117.798  0.00  0.00     0.174 HD
ENDROOT
TORSDOF 0
ENDMDL
MODEL 3
REMARK VINA RESULT:      -7.5      1.930      2.179
REMARK  0 active torsions:
REMARK  status: ('A' for Active; 'I' for Inactive)
REMARK       I    between atoms: C11_15  and  N4_17 
ROOT
ATOM      1  C1   11 d         -14.675 206.207 114.343  0.00  0.00     0.204 A 
ATOM      2  C2   11 d         -15.506 206.313 113.123  0.00  0.00     0.123 A 
ATOM      3  O1   11 d         -16.649 205.687 112.965  0.00  0.00    -0.319 OA
ATOM      4  C3   11 d         -17.115 206.011 111.784  0.00  0.00     0.142 A 
ATOM      5  C4   11 d         -16.256 206.879 111.132  0.00  0.00     0.027 A 
ATOM      6  C5   11 d         -15.204 207.077 112.004  0.00  0.00     0.043 A 
ATOM      7  N1   11 d         -13.502 206.895 114.442  0.00  0.00    -0.203 NA
ATOM      8  C6   11 d         -12.737 206.808 115.568  0.00  0.00     0.204 A 
ATOM      9  C7   11 d         -11.471 207.565 115.675  0.00  0.00     0.123 A 
ATOM     10  O2   11 d         -10.690 207.531 116.730  0.00  0.00    -0.319 OA
ATOM     11  C8   11 d          -9.671 208.318 116.489  0.00  0.00     0.142 A 
ATOM     12  C9   11 d          -9.772 208.894 115.236  0.00  0.00     0.027 A 
ATOM     13  C10  11 d         -10.947 208.403 114.702  0.00  0.00     0.043 A 
ATOM     14  N2   11 d         -13.157 206.022 116.598  0.00  0.00    -0.040 NA
ATOM     15  C11  11 d         -14.324 205.332 116.507  0.00  0.00     0.724 A 
ATOM     16  N3   11 d         -15.079 205.426 115.382  0.00  0.00    -0.040 NA
ATOM     17  N4   11 d         -14.741 204.548 117.550  0.00  0.00    -0.231 N 
ATOM     18  H7   11 d         -14.190 204.479 118.374  0.00  0.00     0.174 HD
ATOM     19  H8   11 d         -15.596 204.046 117.486  0.00  0.00     0.174 HD
ENDROOT
TORSDOF 0
ENDMDL
MODEL 4
REMARK VINA RESULT:      -7.5      1.935      5.864
REMARK  0 active torsions:
REMARK  status: ('A' for Active; 'I' for Inactive)
REMARK       I    between atoms: C11_15  and  N4_17 
ROOT
ATOM      1  C1   11 d         -12.736 206.833 115.605  0.00  0.00     0.204 A 
ATOM      2  C2   11 d         -11.471 207.597 115.693  0.00  0.00     0.123 A 
ATOM      3  O1   11 d         -10.673 207.563 116.736  0.00  0.00    -0.319 OA
ATOM      4  C3   11 d          -9.653 208.341 116.474  0.00  0.00     0.142 A 
ATOM      5  C4   11 d          -9.771 208.913 115.219  0.00  0.00     0.027 A 
ATOM      6  C5   11 d         -10.959 208.429 114.708  0.00  0.00     0.043 A 
ATOM      7  N1   11 d         -13.511 206.906 114.485  0.00  0.00    -0.203 NA
ATOM      8  C6   11 d         -14.672 206.197 114.395  0.00  0.00     0.204 A 
ATOM      9  C7   11 d         -15.502 206.272 113.173  0.00  0.00     0.123 A 
ATOM     10  O2   11 d         -16.628 205.613 113.017  0.00  0.00    -0.319 OA
ATOM     11  C8   11 d         -17.090 205.902 111.827  0.00  0.00     0.142 A 
ATOM     12  C9   11 d         -16.251 206.781 111.166  0.00  0.00     0.027 A 
ATOM     13  C10  11 d         -15.213 207.025 112.045  0.00  0.00     0.043 A 
ATOM     14  N2   11 d         -15.055 205.412 115.439  0.00  0.00    -0.040 NA
ATOM     15  C11  11 d         -14.290 205.334 116.559  0.00  0.00     0.724 A 
ATOM     16  N3   11 d         -13.134 206.043 116.640  0.00  0.00    -0.040 NA
ATOM     17  N4   11 d         -14.680 204.537 117.603  0.00  0.00    -0.231 N 
ATOM     18  H7   11 d         -15.525 204.017 117.546  0.00  0.00     0.174 HD
ATOM     19  H8   11 d         -14.119 204.476 118.421  0.00  0.00     0.174 HD
ENDROOT
TORSDOF 0
ENDMDL
MODEL 5
REMARK VINA RESULT:      -7.4      2.232      3.026
REMARK  0 active torsions:
REMARK  status: ('A' for Active; 'I' for Inactive)
REMARK       I    between atoms: C11_15  and  N4_17 
ROOT
ATOM      1  C1   11 d         -11.142 207.960 113.638  0.00  0.00     0.204 A 
ATOM      2  C2   11 d         -12.233 207.425 112.793  0.00  0.00     0.123 A 
ATOM      3  O1   11 d         -13.480 207.327 113.191  0.00  0.00    -0.319 OA
ATOM      4  C3   11 d         -14.172 206.827 112.197  0.00  0.00     0.142 A 
ATOM      5  C4   11 d         -13.362 206.580 111.102  0.00  0.00     0.027 A 
ATOM      6  C5   11 d         -12.095 206.969 111.489  0.00  0.00     0.043 A 
ATOM      7  N1   11 d          -9.870 208.042 113.155  0.00  0.00    -0.203 NA
ATOM      8  C6   11 d          -8.863 208.543 113.927  0.00  0.00     0.204 A 
ATOM      9  C7   11 d          -7.487 208.641 113.393  0.00  0.00     0.123 A 
ATOM     10  O2   11 d          -6.473 209.116 114.079  0.00  0.00    -0.319 OA
ATOM     11  C8   11 d          -5.418 209.064 113.306  0.00  0.00     0.142 A 
ATOM     12  C9   11 d          -5.734 208.538 112.067  0.00  0.00     0.027 A 
ATOM     13  C10  11 d          -7.085 208.259 112.122  0.00  0.00     0.043 A 
ATOM     14  N2   11 d          -9.140 208.961 115.193  0.00  0.00    -0.040 NA
ATOM     15  C11  11 d         -10.406 208.881 115.683  0.00  0.00     0.724 A 
ATOM     16  N3   11 d         -11.402 208.381 114.906  0.00  0.00    -0.040 NA
ATOM     17  N4   11 d         -10.677 209.309 116.956  0.00  0.00    -0.231 N 
ATOM     18  H7   11 d          -9.949 209.675 117.526  0.00  0.00     0.174 HD
ATOM     19  H8   11 d         -11.602 209.254 117.314  0.00  0.00     0.174 HD
ENDROOT
TORSDOF 0
ENDMDL
MODEL 6
REMARK VINA RESULT:      -7.4      2.374      3.719
REMARK  0 active torsions:
REMARK  status: ('A' for Active; 'I' for Inactive)
REMARK       I    between atoms: C11_15  and  N4_17 
ROOT
ATOM      1  C1   11 d         -12.145 207.251 112.578  0.00  0.00     0.204 A 
ATOM      2  C2   11 d         -13.319 206.648 111.908  0.00  0.00     0.123 A 
ATOM      3  O1   11 d         -13.425 206.519 110.605  0.00  0.00    -0.319 OA
ATOM      4  C3   11 d         -14.575 205.942 110.361  0.00  0.00     0.142 A 
ATOM      5  C4   11 d         -15.259 205.677 111.534  0.00  0.00     0.027 A 
ATOM      6  C5   11 d         -14.441 206.138 112.547  0.00  0.00     0.043 A 
ATOM      7  N1   11 d         -12.097 207.341 113.938  0.00  0.00    -0.203 NA
ATOM      8  C6   11 d         -11.013 207.887 114.561  0.00  0.00     0.204 A 
ATOM      9  C7   11 d         -10.962 207.973 116.037  0.00  0.00     0.123 A 
ATOM     10  O2   11 d          -9.950 208.482 116.701  0.00  0.00    -0.319 OA
ATOM     11  C8   11 d         -10.232 208.391 117.977  0.00  0.00     0.142 A 
ATOM     12  C9   11 d         -11.470 207.805 118.172  0.00  0.00     0.027 A 
ATOM     13  C10  11 d         -11.949 207.532 116.906  0.00  0.00     0.043 A 
ATOM     14  N2   11 d          -9.975 208.346 113.810  0.00  0.00    -0.040 NA
ATOM     15  C11  11 d         -10.015 208.260 112.454  0.00  0.00     0.724 A 
ATOM     16  N3   11 d         -11.098 207.714 111.843  0.00  0.00    -0.040 NA
ATOM     17  N4   11 d          -8.963 208.719 111.706  0.00  0.00    -0.231 N 
ATOM     18  H7   11 d          -8.170 209.119 112.152  0.00  0.00     0.174 HD
ATOM     19  H8   11 d          -8.989 208.654 110.715  0.00  0.00     0.174 HD
ENDROOT
TORSDOF 0
ENDMDL
MODEL 7
REMARK VINA RESULT:      -7.3      2.340      5.986
REMARK  0 active torsions:
REMARK  status: ('A' for Active; 'I' for Inactive)
REMARK       I    between atoms: C11_15  and  N4_17 
ROOT
ATOM      1  C1   11 d         -11.073 207.885 114.577  0.00  0.00     0.204 A 
ATOM      2  C2   11 d         -11.061 207.965 116.055  0.00  0.00     0.123 A 
ATOM      3  O1   11 d         -10.073 208.484 116.747  0.00  0.00    -0.319 OA
ATOM      4  C3   11 d         -10.394 208.400 118.014  0.00  0.00     0.142 A 
ATOM      5  C4   11 d         -11.634 207.806 118.175  0.00  0.00     0.027 A 
ATOM      6  C5   11 d         -12.071 207.520 116.896  0.00  0.00     0.043 A 
ATOM      7  N1   11 d         -12.140 207.343 113.923  0.00  0.00    -0.203 NA
ATOM      8  C6   11 d         -12.160 207.276 112.561  0.00  0.00     0.204 A 
ATOM      9  C7   11 d         -13.325 206.697 111.857  0.00  0.00     0.123 A 
ATOM     10  O2   11 d         -13.412 206.605 110.549  0.00  0.00    -0.319 OA
ATOM     11  C8   11 d         -14.568 206.056 110.271  0.00  0.00     0.142 A 
ATOM     12  C9   11 d         -15.275 205.771 111.425  0.00  0.00     0.027 A 
ATOM     13  C10  11 d         -14.464 206.187 112.463  0.00  0.00     0.043 A 
ATOM     14  N2   11 d         -11.099 207.757 111.855  0.00  0.00    -0.040 NA
ATOM     15  C11  11 d         -10.032 208.298 112.499  0.00  0.00     0.724 A 
ATOM     16  N3   11 d         -10.021 208.361 113.856  0.00  0.00    -0.040 NA
ATOM     17  N4   11 d          -8.971 208.784 111.781  0.00  0.00    -0.231 N 
ATOM     18  H7   11 d          -8.978 208.739 110.788  0.00  0.00     0.174 HD
ATOM     19  H8   11 d          -8.192 209.183 112.250  0.00  0.00     0.174 HD
ENDROOT
TORSDOF 0
ENDMDL
MODEL 8
REMARK VINA RESULT:      -7.3      3.185      4.821
REMARK  0 active torsions:
REMARK  status: ('A' for Active; 'I' for Inactive)
REMARK       I    between atoms: C11_15  and  N4_17 
ROOT
ATOM      1  C1   11 d         -14.445 205.769 114.251  0.00  0.00     0.204 A 
ATOM      2  C2   11 d         -14.015 205.438 115.628  0.00  0.00     0.123 A 
ATOM      3  O1   11 d         -14.833 205.009 116.562  0.00  0.00    -0.319 OA
ATOM      4  C3   11 d         -14.122 204.806 117.644  0.00  0.00     0.142 A 
ATOM      5  C4   11 d         -12.789 205.109 117.427  0.00  0.00     0.027 A 
ATOM      6  C5   11 d         -12.717 205.523 116.112  0.00  0.00     0.043 A 
ATOM      7  N1   11 d         -13.537 206.199 113.328  0.00  0.00    -0.203 NA
ATOM      8  C6   11 d         -13.927 206.497 112.056  0.00  0.00     0.204 A 
ATOM      9  C7   11 d         -12.936 206.951 111.056  0.00  0.00     0.123 A 
ATOM     10  O2   11 d         -13.241 207.251 109.814  0.00  0.00    -0.319 OA
ATOM     11  C8   11 d         -12.133 207.603 109.212  0.00  0.00     0.142 A 
ATOM     12  C9   11 d         -11.055 207.540 110.076  0.00  0.00     0.027 A 
ATOM     13  C10  11 d         -11.578 207.115 111.282  0.00  0.00     0.043 A 
ATOM     14  N2   11 d         -15.238 206.363 111.713  0.00  0.00    -0.040 NA
ATOM     15  C11  11 d         -16.149 205.937 112.627  0.00  0.00     0.724 A 
ATOM     16  N3   11 d         -15.751 205.642 113.891  0.00  0.00    -0.040 NA
ATOM     17  N4   11 d         -17.465 205.800 112.271  0.00  0.00    -0.231 N 
ATOM     18  H7   11 d         -17.758 206.016 111.347  0.00  0.00     0.174 HD
ATOM     19  H8   11 d         -18.132 205.485 112.938  0.00  0.00     0.174 HD
ENDROOT
TORSDOF 0
ENDMDL
MODEL 9
REMARK VINA RESULT:      -7.1      3.423      5.289
REMARK  0 active torsions:
REMARK  status: ('A' for Active; 'I' for Inactive)
REMARK       I    between atoms: C11_15  and  N4_17 
ROOT
ATOM      1  C1   11 d         -14.029 205.455 116.470  0.00  0.00     0.204 A 
ATOM      2  C2   11 d         -14.660 204.499 117.408  0.00  0.00     0.123 A 
ATOM      3  O1   11 d         -14.533 204.570 118.713  0.00  0.00    -0.319 OA
ATOM      4  C3   11 d         -15.224 203.583 119.229  0.00  0.00     0.142 A 
ATOM      5  C4   11 d         -15.830 202.829 118.239  0.00  0.00     0.027 A 
ATOM      6  C5   11 d         -15.463 203.426 117.048  0.00  0.00     0.043 A 
ATOM      7  N1   11 d         -14.213 205.327 115.125  0.00  0.00    -0.203 NA
ATOM      8  C6   11 d         -13.641 206.211 114.258  0.00  0.00     0.204 A 
ATOM      9  C7   11 d         -13.854 206.074 112.800  0.00  0.00     0.123 A 
ATOM     10  O2   11 d         -13.338 206.891 111.910  0.00  0.00    -0.319 OA
ATOM     11  C8   11 d         -13.733 206.485 110.730  0.00  0.00     0.142 A 
ATOM     12  C9   11 d         -14.537 205.363 110.832  0.00  0.00     0.027 A 
ATOM     13  C10  11 d         -14.616 205.093 112.184  0.00  0.00     0.043 A 
ATOM     14  N2   11 d         -12.878 207.226 114.749  0.00  0.00    -0.040 NA
ATOM     15  C11  11 d         -12.688 207.360 116.088  0.00  0.00     0.724 A 
ATOM     16  N3   11 d         -13.262 206.475 116.944  0.00  0.00    -0.040 NA
ATOM     17  N4   11 d         -11.923 208.387 116.573  0.00  0.00    -0.231 N 
ATOM     18  H7   11 d         -11.502 209.035 115.948  0.00  0.00     0.174 HD
ATOM     19  H8   11 d         -11.786 208.488 117.552  0.00  0.00     0.174 HD
ENDROOT
TORSDOF 0
ENDMDL
MODEL 10
REMARK VINA RESULT:      -6.9      3.203      4.485
REMARK  0 active torsions:
REMARK  status: ('A' for Active; 'I' for Inactive)
REMARK       I    between atoms: C11_15  and  N4_17 
ROOT
ATOM      1  C1   11 d         -12.791 206.265 116.957  0.00  0.00     0.204 A 
ATOM      2  C2   11 d         -13.719 205.284 117.565  0.00  0.00     0.123 A 
ATOM      3  O1   11 d         -13.949 205.203 118.855  0.00  0.00    -0.319 OA
ATOM      4  C3   11 d         -14.819 204.242 119.039  0.00  0.00     0.142 A 
ATOM      5  C4   11 d         -15.182 203.661 117.836  0.00  0.00     0.027 A 
ATOM      6  C5   11 d         -14.463 204.340 116.871  0.00  0.00     0.043 A 
ATOM      7  N1   11 d         -12.609 206.299 115.606  0.00  0.00    -0.203 NA
ATOM      8  C6   11 d         -11.763 207.207 115.041  0.00  0.00     0.204 A 
ATOM      9  C7   11 d         -11.578 207.247 113.574  0.00  0.00     0.123 A 
ATOM     10  O2   11 d         -10.784 208.097 112.964  0.00  0.00    -0.319 OA
ATOM     11  C8   11 d         -10.868 207.860 111.679  0.00  0.00     0.142 A 
ATOM     12  C9   11 d         -11.743 206.820 111.421  0.00  0.00     0.027 A 
ATOM     13  C10  11 d         -12.208 206.417 112.658  0.00  0.00     0.043 A 
ATOM     14  N2   11 d         -11.096 208.083 115.842  0.00  0.00    -0.040 NA
ATOM     15  C11  11 d         -11.271 208.055 117.189  0.00  0.00     0.724 A 
ATOM     16  N3   11 d         -12.116 207.147 117.743  0.00  0.00    -0.040 NA
ATOM     17  N4   11 d         -10.599 208.944 117.987  0.00  0.00    -0.231 N 
ATOM     18  H7   11 d          -9.981 209.608 117.584  0.00  0.00     0.174 HD
ATOM     19  H8   11 d         -10.729 208.926 118.972  0.00  0.00     0.174 HD
ENDROOT
TORSDOF 0
ENDMDL
MODEL 11
REMARK VINA RESULT:      -6.8      2.736      5.326
REMARK  0 active torsions:
REMARK  status: ('A' for Active; 'I' for Inactive)
REMARK       I    between atoms: C11_15  and  N4_17 
ROOT
ATOM      1  C1   11 d         -12.457 206.699 112.670  0.00  0.00     0.204 A 
ATOM      2  C2   11 d         -11.330 207.412 112.028  0.00  0.00     0.123 A 
ATOM      3  O1   11 d         -11.265 207.660 110.740  0.00  0.00    -0.319 OA
ATOM      4  C3   11 d         -10.148 208.309 110.521  0.00  0.00     0.142 A 
ATOM      5  C4   11 d          -9.444 208.500 111.698  0.00  0.00     0.027 A 
ATOM      6  C5   11 d         -10.214 207.914 112.683  0.00  0.00     0.043 A 
ATOM      7  N1   11 d         -12.463 206.487 114.017  0.00  0.00    -0.203 NA
ATOM      8  C6   11 d         -13.505 205.838 114.614  0.00  0.00     0.204 A 
ATOM      9  C7   11 d         -13.511 205.620 116.077  0.00  0.00     0.123 A 
ATOM     10  O2   11 d         -14.482 205.008 116.716  0.00  0.00    -0.319 OA
ATOM     11  C8   11 d         -14.169 204.999 117.988  0.00  0.00     0.142 A 
ATOM     12  C9   11 d         -12.952 205.621 118.206  0.00  0.00     0.027 A 
ATOM     13  C10  11 d         -12.520 206.026 116.958  0.00  0.00     0.043 A 
ATOM     14  N2   11 d         -14.543 205.401 113.849  0.00  0.00    -0.040 NA
ATOM     15  C11  11 d         -14.544 205.609 112.506  0.00  0.00     0.724 A 
ATOM     16  N3   11 d         -13.503 206.256 111.920  0.00  0.00    -0.040 NA
ATOM     17  N4   11 d         -15.596 205.170 111.745  0.00  0.00    -0.231 N 
ATOM     18  H7   11 d         -16.358 204.697 112.172  0.00  0.00     0.174 HD
ATOM     19  H8   11 d         -15.599 205.324 110.763  0.00  0.00     0.174 HD
ENDROOT
TORSDOF 0
ENDMDL
MODEL 12
REMARK VINA RESULT:      -6.8      3.193      6.306
REMARK  0 active torsions:
REMARK  status: ('A' for Active; 'I' for Inactive)
REMARK       I    between atoms: C11_15  and  N4_17 
ROOT
ATOM      1  C1   11 d         -11.070 207.710 117.780  0.00  0.00     0.204 A 
ATOM      2  C2   11 d          -9.781 208.005 118.446  0.00  0.00     0.123 A 
ATOM      3  O1   11 d          -9.664 208.236 119.733  0.00  0.00    -0.319 OA
ATOM      4  C3   11 d          -8.395 208.448 119.980  0.00  0.00     0.142 A 
ATOM      5  C4   11 d          -7.641 208.357 118.824  0.00  0.00     0.027 A 
ATOM      6  C5   11 d          -8.544 208.068 117.820  0.00  0.00     0.043 A 
ATOM      7  N1   11 d         -11.116 207.468 116.439  0.00  0.00    -0.203 NA
ATOM      8  C6   11 d         -12.299 207.187 115.823  0.00  0.00     0.204 A 
ATOM      9  C7   11 d         -12.341 206.914 114.370  0.00  0.00     0.123 A 
ATOM     10  O2   11 d         -13.444 206.633 113.714  0.00  0.00    -0.319 OA
ATOM     11  C8   11 d         -13.116 206.442 112.460  0.00  0.00     0.142 A 
ATOM     12  C9   11 d         -11.755 206.601 112.271  0.00  0.00     0.027 A 
ATOM     13  C10  11 d         -11.247 206.911 113.517  0.00  0.00     0.043 A 
ATOM     14  N2   11 d         -13.443 207.152 116.562  0.00  0.00    -0.040 NA
ATOM     15  C11  11 d         -13.406 207.393 117.899  0.00  0.00     0.724 A 
ATOM     16  N3   11 d         -12.222 207.671 118.504  0.00  0.00    -0.040 NA
ATOM     17  N4   11 d         -14.561 207.350 118.635  0.00  0.00    -0.231 N 
ATOM     18  H7   11 d         -15.427 207.146 118.194  0.00  0.00     0.174 HD
ATOM     19  H8   11 d         -14.535 207.522 119.613  0.00  0.00     0.174 HD
ENDROOT
TORSDOF 0
ENDMDL
MODEL 13
REMARK VINA RESULT:      -6.1      5.645      8.043
REMARK  0 active torsions:
REMARK  status: ('A' for Active; 'I' for Inactive)
REMARK       I    between atoms: C11_15  and  N4_17 
ROOT
ATOM      1  C1   11 d          -6.197 208.918 113.939  0.00  0.00     0.204 A 
ATOM      2  C2   11 d          -7.588 208.752 113.461  0.00  0.00     0.123 A 
ATOM      3  O1   11 d          -8.640 208.834 114.242  0.00  0.00    -0.319 OA
ATOM      4  C3   11 d          -9.700 208.648 113.494  0.00  0.00     0.142 A 
ATOM      5  C4   11 d          -9.346 208.435 112.173  0.00  0.00     0.027 A 
ATOM      6  C5   11 d          -7.966 208.502 112.149  0.00  0.00     0.043 A 
ATOM      7  N1   11 d          -5.151 208.831 113.068  0.00  0.00    -0.203 NA
ATOM      8  C6   11 d          -3.869 208.993 113.503  0.00  0.00     0.204 A 
ATOM      9  C7   11 d          -2.739 208.909 112.551  0.00  0.00     0.123 A 
ATOM     10  O2   11 d          -1.482 209.058 112.900  0.00  0.00    -0.319 OA
ATOM     11  C8   11 d          -0.757 208.932 111.817  0.00  0.00     0.142 A 
ATOM     12  C9   11 d          -1.551 208.690 110.711  0.00  0.00     0.027 A 
ATOM     13  C10  11 d          -2.847 208.673 111.189  0.00  0.00     0.043 A 
ATOM     14  N2   11 d          -3.639 209.240 114.822  0.00  0.00    -0.040 NA
ATOM     15  C11  11 d          -4.675 209.327 115.697  0.00  0.00     0.724 A 
ATOM     16  N3   11 d          -5.949 209.165 115.255  0.00  0.00    -0.040 NA
ATOM     17  N4   11 d          -4.435 209.581 117.022  0.00  0.00    -0.231 N 
ATOM     18  H7   11 d          -3.504 209.700 117.347  0.00  0.00     0.174 HD
ATOM     19  H8   11 d          -5.192 209.648 117.662  0.00  0.00     0.174 HD
ENDROOT
TORSDOF 0
ENDMDL
MODEL 14
REMARK VINA RESULT:      -6.1      5.636      9.576
REMARK  0 active torsions:
REMARK  status: ('A' for Active; 'I' for Inactive)
REMARK       I    between atoms: C11_15  and  N4_17 
ROOT
ATOM      1  C1   11 d          -3.880 209.035 113.529  0.00  0.00     0.204 A 
ATOM      2  C2   11 d          -2.726 208.935 112.607  0.00  0.00     0.123 A 
ATOM      3  O1   11 d          -1.476 209.056 112.991  0.00  0.00    -0.319 OA
ATOM      4  C3   11 d          -0.723 208.906 111.930  0.00  0.00     0.142 A 
ATOM      5  C4   11 d          -1.493 208.679 110.802  0.00  0.00     0.027 A 
ATOM      6  C5   11 d          -2.802 208.699 111.242  0.00  0.00     0.043 A 
ATOM      7  N1   11 d          -5.153 208.888 113.062  0.00  0.00    -0.203 NA
ATOM      8  C6   11 d          -6.218 208.969 113.910  0.00  0.00     0.204 A 
ATOM      9  C7   11 d          -7.596 208.797 113.399  0.00  0.00     0.123 A 
ATOM     10  O2   11 d          -8.666 208.859 114.158  0.00  0.00    -0.319 OA
ATOM     11  C8   11 d          -9.706 208.656 113.388  0.00  0.00     0.142 A 
ATOM     12  C9   11 d          -9.321 208.454 112.075  0.00  0.00     0.027 A 
ATOM     13  C10  11 d          -7.943 208.547 112.079  0.00  0.00     0.043 A 
ATOM     14  N2   11 d          -6.000 209.201 115.233  0.00  0.00    -0.040 NA
ATOM     15  C11  11 d          -4.735 209.350 115.707  0.00  0.00     0.724 A 
ATOM     16  N3   11 d          -3.680 209.267 114.856  0.00  0.00    -0.040 NA
ATOM     17  N4   11 d          -4.524 209.578 117.041  0.00  0.00    -0.231 N 
ATOM     18  H7   11 d          -5.295 209.639 117.665  0.00  0.00     0.174 HD
ATOM     19  H8   11 d          -3.600 209.684 117.389  0.00  0.00     0.174 HD
ENDROOT
TORSDOF 0
ENDMDL
MODEL 15
REMARK VINA RESULT:      -5.8      4.188      6.525
REMARK  0 active torsions:
REMARK  status: ('A' for Active; 'I' for Inactive)
REMARK       I    between atoms: C11_15  and  N4_17 
ROOT
ATOM      1  C1   11 d         -12.875 206.066 118.835  0.00  0.00     0.204 A 
ATOM      2  C2   11 d         -13.672 205.701 120.028  0.00  0.00     0.123 A 
ATOM      3  O1   11 d         -13.241 205.838 121.261  0.00  0.00    -0.319 OA
ATOM      4  C3   11 d         -14.197 205.432 122.059  0.00  0.00     0.142 A 
ATOM      5  C4   11 d         -15.301 205.010 121.338  0.00  0.00     0.027 A 
ATOM      6  C5   11 d         -14.960 205.184 120.011  0.00  0.00     0.043 A 
ATOM      7  N1   11 d         -13.392 205.908 117.583  0.00  0.00    -0.203 NA
ATOM      8  C6   11 d         -12.665 206.251 116.482  0.00  0.00     0.204 A 
ATOM      9  C7   11 d         -13.235 206.088 115.127  0.00  0.00     0.123 A 
ATOM     10  O2   11 d         -12.593 206.402 114.025  0.00  0.00    -0.319 OA
ATOM     11  C8   11 d         -13.390 206.140 113.019  0.00  0.00     0.142 A 
ATOM     12  C9   11 d         -14.599 205.635 113.460  0.00  0.00     0.027 A 
ATOM     13  C10  11 d         -14.500 205.599 114.837  0.00  0.00     0.043 A 
ATOM     14  N2   11 d         -11.410 206.755 116.643  0.00  0.00    -0.040 NA
ATOM     15  C11  11 d         -10.887 206.914 117.887  0.00  0.00     0.724 A 
ATOM     16  N3   11 d         -11.619 206.570 118.978  0.00  0.00    -0.040 NA
ATOM     17  N4   11 d          -9.625 207.426 118.041  0.00  0.00    -0.231 N 
ATOM     18  H7   11 d          -9.088 207.679 117.243  0.00  0.00     0.174 HD
ATOM     19  H8   11 d          -9.243 207.547 118.950  0.00  0.00     0.174 HD
ENDROOT
TORSDOF 0
ENDMDL
MODEL 16
REMARK VINA RESULT:      -5.7     12.099     14.333
REMARK  0 active torsions:
REMARK  status: ('A' for Active; 'I' for Inactive)
REMARK       I    between atoms: C11_15  and  N4_17 
ROOT
ATOM      1  C1   11 d          -2.147 212.055 106.788  0.00  0.00     0.204 A 
ATOM      2  C2   11 d          -1.493 213.382 106.848  0.00  0.00     0.123 A 
ATOM      3  O1   11 d          -1.044 213.921 107.958  0.00  0.00    -0.319 OA
ATOM      4  C3   11 d          -0.522 215.082 107.647  0.00  0.00     0.142 A 
ATOM      5  C4   11 d          -0.627 215.327 106.289  0.00  0.00     0.027 A 
ATOM      6  C5   11 d          -1.261 214.218 105.765  0.00  0.00     0.043 A 
ATOM      7  N1   11 d          -2.580 211.551 105.597  0.00  0.00    -0.203 NA
ATOM      8  C6   11 d          -3.174 210.325 105.536  0.00  0.00     0.204 A 
ATOM      9  C7   11 d          -3.632 209.779 104.239  0.00  0.00     0.123 A 
ATOM     10  O2   11 d          -4.207 208.606 104.107  0.00  0.00    -0.319 OA
ATOM     11  C8   11 d          -4.471 208.440 102.835  0.00  0.00     0.142 A 
ATOM     12  C9   11 d          -4.062 209.534 102.095  0.00  0.00     0.027 A 
ATOM     13  C10  11 d          -3.514 210.411 103.010  0.00  0.00     0.043 A 
ATOM     14  N2   11 d          -3.335 209.605 106.680  0.00  0.00    -0.040 NA
ATOM     15  C11  11 d          -2.907 210.100 107.871  0.00  0.00     0.724 A 
ATOM     16  N3   11 d          -2.315 211.322 107.923  0.00  0.00    -0.040 NA
ATOM     17  N4   11 d          -3.068 209.366 109.017  0.00  0.00    -0.231 N 
ATOM     18  H7   11 d          -3.500 208.473 108.981  0.00  0.00     0.174 HD
ATOM     19  H8   11 d          -2.752 209.726 109.888  0.00  0.00     0.174 HD
ENDROOT
TORSDOF 0
ENDMDL
MODEL 17
REMARK VINA RESULT:      -5.6      6.147      9.798
REMARK  0 active torsions:
REMARK  status: ('A' for Active; 'I' for Inactive)
REMARK       I    between atoms: C11_15  and  N4_17 
ROOT
ATOM      1  C1   11 d          -3.965 208.807 115.836  0.00  0.00     0.204 A 
ATOM      2  C2   11 d          -2.688 208.063 115.752  0.00  0.00     0.123 A 
ATOM      3  O1   11 d          -1.776 208.076 116.697  0.00  0.00    -0.319 OA
ATOM      4  C3   11 d          -0.790 207.310 116.301  0.00  0.00     0.142 A 
ATOM      5  C4   11 d          -1.050 206.770 115.053  0.00  0.00     0.027 A 
ATOM      6  C5   11 d          -2.289 207.261 114.692  0.00  0.00     0.043 A 
ATOM      7  N1   11 d          -4.873 208.739 114.820  0.00  0.00    -0.203 NA
ATOM      8  C6   11 d          -6.054 209.416 114.897  0.00  0.00     0.204 A 
ATOM      9  C7   11 d          -7.039 209.329 113.797  0.00  0.00     0.123 A 
ATOM     10  O2   11 d          -8.197 209.950 113.806  0.00  0.00    -0.319 OA
ATOM     11  C8   11 d          -8.813 209.648 112.691  0.00  0.00     0.142 A 
ATOM     12  C9   11 d          -8.046 208.803 111.911  0.00  0.00     0.027 A 
ATOM     13  C10  11 d          -6.886 208.594 112.631  0.00  0.00     0.043 A 
ATOM     14  N2   11 d          -6.322 210.165 116.002  0.00  0.00    -0.040 NA
ATOM     15  C11  11 d          -5.423 210.238 117.018  0.00  0.00     0.724 A 
ATOM     16  N3   11 d          -4.249 209.561 116.933  0.00  0.00    -0.040 NA
ATOM     17  N4   11 d          -5.703 210.991 118.129  0.00  0.00    -0.231 N 
ATOM     18  H7   11 d          -6.562 211.486 118.193  0.00  0.00     0.174 HD
ATOM     19  H8   11 d          -5.048 211.042 118.874  0.00  0.00     0.174 HD
ENDROOT
TORSDOF 0
ENDMDL
MODEL 18
REMARK VINA RESULT:      -5.5      5.487      7.497
REMARK  0 active torsions:
REMARK  status: ('A' for Active; 'I' for Inactive)
REMARK       I    between atoms: C11_15  and  N4_17 
ROOT
ATOM      1  C1   11 d         -14.893 204.564 119.805  0.00  0.00     0.204 A 
ATOM      2  C2   11 d         -15.060 204.906 121.236  0.00  0.00     0.123 A 
ATOM      3  O1   11 d         -15.739 204.170 122.085  0.00  0.00    -0.319 OA
ATOM      4  C3   11 d         -15.673 204.758 123.254  0.00  0.00     0.142 A 
ATOM      5  C4   11 d         -14.928 205.922 123.185  0.00  0.00     0.027 A 
ATOM      6  C5   11 d         -14.527 206.022 121.867  0.00  0.00     0.043 A 
ATOM      7  N1   11 d         -14.164 205.370 118.982  0.00  0.00    -0.203 NA
ATOM      8  C6   11 d         -14.000 205.054 117.666  0.00  0.00     0.204 A 
ATOM      9  C7   11 d         -13.198 205.927 116.780  0.00  0.00     0.123 A 
ATOM     10  O2   11 d         -12.996 205.681 115.506  0.00  0.00    -0.319 OA
ATOM     11  C8   11 d         -12.243 206.643 115.035  0.00  0.00     0.142 A 
ATOM     12  C9   11 d         -11.933 207.561 116.022  0.00  0.00     0.027 A 
ATOM     13  C10  11 d         -12.557 207.096 117.163  0.00  0.00     0.043 A 
ATOM     14  N2   11 d         -14.575 203.921 117.176  0.00  0.00    -0.040 NA
ATOM     15  C11  11 d         -15.305 203.113 117.990  0.00  0.00     0.724 A 
ATOM     16  N3   11 d         -15.462 203.435 119.300  0.00  0.00    -0.040 NA
ATOM     17  N4   11 d         -15.876 201.972 117.490  0.00  0.00    -0.231 N 
ATOM     18  H7   11 d         -15.761 201.735 116.532  0.00  0.00     0.174 HD
ATOM     19  H8   11 d         -16.406 201.378 118.084  0.00  0.00     0.174 HD
ENDROOT
TORSDOF 0
ENDMDL
MODEL 19
REMARK VINA RESULT:      -5.5      3.582      4.712
REMARK  0 active torsions:
REMARK  status: ('A' for Active; 'I' for Inactive)
REMARK       I    between atoms: C11_15  and  N4_17 
ROOT
ATOM      1  C1   11 d         -11.553 207.475 115.379  0.00  0.00     0.204 A 
ATOM      2  C2   11 d         -12.825 206.848 114.954  0.00  0.00     0.123 A 
ATOM      3  O1   11 d         -13.372 207.040 113.776  0.00  0.00    -0.319 OA
ATOM      4  C3   11 d         -14.473 206.332 113.734  0.00  0.00     0.142 A 
ATOM      5  C4   11 d         -14.669 205.646 114.920  0.00  0.00     0.027 A 
ATOM      6  C5   11 d         -13.594 205.982 115.719  0.00  0.00     0.043 A 
ATOM      7  N1   11 d         -11.036 207.221 116.615  0.00  0.00    -0.203 NA
ATOM      8  C6   11 d          -9.861 207.790 117.007  0.00  0.00     0.204 A 
ATOM      9  C7   11 d          -9.299 207.501 118.345  0.00  0.00     0.123 A 
ATOM     10  O2   11 d          -8.171 208.010 118.786  0.00  0.00    -0.319 OA
ATOM     11  C8   11 d          -7.974 207.541 119.992  0.00  0.00     0.142 A 
ATOM     12  C9   11 d          -9.000 206.695 120.371  0.00  0.00     0.027 A 
ATOM     13  C10  11 d          -9.868 206.668 119.297  0.00  0.00     0.043 A 
ATOM     14  N2   11 d          -9.204 208.620 116.151  0.00  0.00    -0.040 NA
ATOM     15  C11  11 d          -9.713 208.879 114.918  0.00  0.00     0.724 A 
ATOM     16  N3   11 d         -10.884 208.308 114.535  0.00  0.00    -0.040 NA
ATOM     17  N4   11 d          -9.042 209.712 114.060  0.00  0.00    -0.231 N 
ATOM     18  H7   11 d          -8.185 210.130 114.338  0.00  0.00     0.174 HD
ATOM     19  H8   11 d          -9.411 209.899 113.157  0.00  0.00     0.174 HD
ENDROOT
TORSDOF 0
ENDMDL
MODEL 20
REMARK VINA RESULT:      -5.4      4.314      5.349
REMARK  0 active torsions:
REMARK  status: ('A' for Active; 'I' for Inactive)
REMARK       I    between atoms: C11_15  and  N4_17 
ROOT
ATOM      1  C1   11 d         -10.581 207.705 117.974  0.00  0.00     0.204 A 
ATOM      2  C2   11 d         -12.027 207.389 117.991  0.00  0.00     0.123 A 
ATOM      3  O1   11 d         -12.672 206.993 119.064  0.00  0.00    -0.319 OA
ATOM      4  C3   11 d         -13.925 206.815 118.726  0.00  0.00     0.142 A 
ATOM      5  C4   11 d         -14.123 207.098 117.386  0.00  0.00     0.027 A 
ATOM      6  C5   11 d         -12.885 207.472 116.904  0.00  0.00     0.043 A 
ATOM      7  N1   11 d          -9.978 208.122 116.824  0.00  0.00    -0.203 NA
ATOM      8  C6   11 d          -8.648 208.423 116.806  0.00  0.00     0.204 A 
ATOM      9  C7   11 d          -8.002 208.885 115.558  0.00  0.00     0.123 A 
ATOM     10  O2   11 d          -6.729 209.196 115.470  0.00  0.00    -0.319 OA
ATOM     11  C8   11 d          -6.500 209.570 114.236  0.00  0.00     0.142 A 
ATOM     12  C9   11 d          -7.654 209.506 113.475  0.00  0.00     0.027 A 
ATOM     13  C10  11 d          -8.636 209.058 114.336  0.00  0.00     0.043 A 
ATOM     14  N2   11 d          -7.922 208.301 117.951  0.00  0.00    -0.040 NA
ATOM     15  C11  11 d          -8.515 207.885 119.101  0.00  0.00     0.724 A 
ATOM     16  N3   11 d          -9.840 207.588 119.110  0.00  0.00    -0.040 NA
ATOM     17  N4   11 d          -7.778 207.771 120.251  0.00  0.00    -0.231 N 
ATOM     18  H7   11 d          -6.808 207.988 120.246  0.00  0.00     0.174 HD
ATOM     19  H8   11 d          -8.210 207.471 121.093  0.00  0.00     0.174 HD
ENDROOT
TORSDOF 0
ENDMDL
