MODEL 1
REMARK VINA RESULT:      -7.5      0.000      0.000
REMARK  4 active torsions:
REMARK  status: ('A' for Active; 'I' for Inactive)
REMARK    1  A    between atoms: C1_1  and  C2_2 
REMARK    2  A    between atoms: C3_3  and  O1_8 
REMARK    3  A    between atoms: N1_9  and  N2_10 
REMARK       I    between atoms: N2_10  and  C8_11 
REMARK       I    between atoms: C8_11  and  N3_13 
REMARK    4  A    between atoms: N3_13  and  C9_14 
ROOT
ATOM      1  N2   11 d         -12.754 208.078 114.528  0.00  0.00    -0.228 N 
ATOM      2  C8   11 d         -11.346 207.973 114.362  0.00  0.00     0.341 C 
ATOM      3  O2   11 d         -10.716 206.920 114.738  0.00  0.00    -0.245 OA
ATOM      4  N3   11 d         -10.651 209.063 113.771  0.00  0.00    -0.308 N 
ATOM      5  H6   11 d         -13.269 208.964 114.210  0.00  0.00     0.194 HD
ATOM      6  H7   11 d         -11.193 209.937 113.463  0.00  0.00     0.170 HD
ENDROOT
BRANCH   1   7
ATOM      7  N1   11 d         -13.536 207.062 115.088  0.00  0.00    -0.175 NA
ATOM      8  C1   11 d         -14.445 206.418 114.384  0.00  0.00     0.064 C 
ATOM      9  C15  11 d         -15.212 205.364 115.138  0.00  0.00     0.073 C 
BRANCH   8  10
ATOM     10  C2   11 d         -14.688 206.562 112.910  0.00  0.00     0.023 A 
ATOM     11  C3   11 d         -13.679 206.384 111.926  0.00  0.00     0.077 A 
ATOM     12  C4   11 d         -13.990 206.544 110.565  0.00  0.00     0.037 A 
ATOM     13  C5   11 d         -15.303 206.813 110.160  0.00  0.00     0.003 A 
ATOM     14  C6   11 d         -16.315 206.945 111.119  0.00  0.00     0.001 A 
ATOM     15  C7   11 d         -16.008 206.826 112.481  0.00  0.00     0.016 A 
BRANCH  11  16
ATOM     16  O1   11 d         -12.338 206.089 112.266  0.00  0.00    -0.360 OA
ATOM     17  H5   11 d         -12.071 205.304 111.648  0.00  0.00     0.217 HD
ENDBRANCH  11  16
ENDBRANCH   8  10
ENDBRANCH   1   7
BRANCH   4  18
ATOM     18  C9   11 d          -9.209 209.044 113.555  0.00  0.00     0.036 A 
ATOM     19  C10  11 d          -8.703 208.513 112.355  0.00  0.00     0.029 A 
ATOM     20  C11  11 d          -7.322 208.513 112.110  0.00  0.00     0.002 A 
ATOM     21  C12  11 d          -6.440 209.044 113.064  0.00  0.00     0.000 A 
ATOM     22  C13  11 d          -6.940 209.572 114.265  0.00  0.00     0.002 A 
ATOM     23  C14  11 d          -8.323 209.571 114.511  0.00  0.00     0.029 A 
ENDBRANCH   4  18
TORSDOF 4
ENDMDL
MODEL 2
REMARK VINA RESULT:      -7.4      4.673      7.331
REMARK  4 active torsions:
REMARK  status: ('A' for Active; 'I' for Inactive)
REMARK    1  A    between atoms: C1_1  and  C2_2 
REMARK    2  A    between atoms: C3_3  and  O1_8 
REMARK    3  A    between atoms: N1_9  and  N2_10 
REMARK       I    between atoms: N2_10  and  C8_11 
REMARK       I    between atoms: C8_11  and  N3_13 
REMARK    4  A    between atoms: N3_13  and  C9_14 
ROOT
ATOM      1  N2   11 d         -14.628 205.666 116.686  0.00  0.00    -0.228 N 
ATOM      2  C8   11 d         -14.370 205.946 115.317  0.00  0.00     0.341 C 
ATOM      3  O2   11 d         -13.245 206.441 114.947  0.00  0.00    -0.245 OA
ATOM      4  N3   11 d         -15.389 205.666 114.366  0.00  0.00    -0.308 N 
ATOM      5  H6   11 d         -15.572 205.253 116.984  0.00  0.00     0.194 HD
ATOM      6  H7   11 d         -16.324 205.253 114.693  0.00  0.00     0.170 HD
ENDROOT
BRANCH   1   7
ATOM      7  N1   11 d         -13.693 205.893 117.703  0.00  0.00    -0.175 NA
ATOM      8  C1   11 d         -13.865 205.422 118.921  0.00  0.00     0.064 C 
ATOM      9  C15  11 d         -12.776 205.768 119.903  0.00  0.00     0.073 C 
BRANCH   8  10
ATOM     10  C2   11 d         -14.961 204.498 119.367  0.00  0.00     0.023 A 
ATOM     11  C3   11 d         -15.229 203.244 118.756  0.00  0.00     0.077 A 
ATOM     12  C4   11 d         -16.280 202.442 119.231  0.00  0.00     0.037 A 
ATOM     13  C5   11 d         -17.030 202.835 120.347  0.00  0.00     0.003 A 
ATOM     14  C6   11 d         -16.745 204.049 120.985  0.00  0.00     0.001 A 
ATOM     15  C7   11 d         -15.724 204.874 120.495  0.00  0.00     0.016 A 
BRANCH  11  16
ATOM     16  O1   11 d         -14.495 202.776 117.641  0.00  0.00    -0.360 OA
ATOM     17  H5   11 d         -15.072 202.017 117.239  0.00  0.00     0.217 HD
ENDBRANCH  11  16
ENDBRANCH   8  10
ENDBRANCH   1   7
BRANCH   4  18
ATOM     18  C9   11 d         -15.214 205.914 112.940  0.00  0.00     0.036 A 
ATOM     19  C10  11 d         -15.610 207.154 112.407  0.00  0.00     0.029 A 
ATOM     20  C11  11 d         -15.422 207.429 111.044  0.00  0.00     0.002 A 
ATOM     21  C12  11 d         -14.837 206.465 110.208  0.00  0.00     0.000 A 
ATOM     22  C13  11 d         -14.443 205.225 110.735  0.00  0.00     0.002 A 
ATOM     23  C14  11 d         -14.633 204.949 112.099  0.00  0.00     0.029 A 
ENDBRANCH   4  18
TORSDOF 4
ENDMDL
MODEL 3
REMARK VINA RESULT:      -7.3      5.162      7.770
REMARK  4 active torsions:
REMARK  status: ('A' for Active; 'I' for Inactive)
REMARK    1  A    between atoms: C1_1  and  C2_2 
REMARK    2  A    between atoms: C3_3  and  O1_8 
REMARK    3  A    between atoms: N1_9  and  N2_10 
REMARK       I    between atoms: N2_10  and  C8_11 
REMARK       I    between atoms: C8_11  and  N3_13 
REMARK    4  A    between atoms: N3_13  and  C9_14 
ROOT
ATOM      1  N2   11 d         -14.754 207.108 119.286  0.00  0.00    -0.228 N 
ATOM      2  C8   11 d         -14.076 206.911 118.053  0.00  0.00     0.341 C 
ATOM      3  O2   11 d         -12.896 206.407 118.023  0.00  0.00    -0.245 OA
ATOM      4  N3   11 d         -14.736 207.286 116.851  0.00  0.00    -0.308 N 
ATOM      5  H6   11 d         -15.740 207.530 119.298  0.00  0.00     0.194 HD
ATOM      6  H7   11 d         -15.722 207.706 116.893  0.00  0.00     0.170 HD
ENDROOT
BRANCH   1   7
ATOM      7  N1   11 d         -14.202 206.765 120.526  0.00  0.00    -0.175 NA
ATOM      8  C1   11 d         -14.901 206.131 121.445  0.00  0.00     0.064 C 
ATOM      9  C15  11 d         -14.167 205.850 122.730  0.00  0.00     0.073 C 
BRANCH   8  10
ATOM     10  C2   11 d         -16.288 205.579 121.279  0.00  0.00     0.023 A 
ATOM     11  C3   11 d         -17.411 206.370 120.919  0.00  0.00     0.077 A 
ATOM     12  C4   11 d         -18.677 205.774 120.790  0.00  0.00     0.037 A 
ATOM     13  C5   11 d         -18.834 204.391 120.951  0.00  0.00     0.003 A 
ATOM     14  C6   11 d         -17.725 203.596 121.261  0.00  0.00     0.001 A 
ATOM     15  C7   11 d         -16.465 204.185 121.429  0.00  0.00     0.016 A 
BRANCH  11  16
ATOM     16  O1   11 d         -17.317 207.768 120.720  0.00  0.00    -0.360 OA
ATOM     17  H5   11 d         -17.816 207.947 119.832  0.00  0.00     0.217 HD
ENDBRANCH  11  16
ENDBRANCH   8  10
ENDBRANCH   1   7
BRANCH   4  18
ATOM     18  C9   11 d         -14.122 207.116 115.539  0.00  0.00     0.036 A 
ATOM     19  C10  11 d         -14.401 205.953 114.798  0.00  0.00     0.029 A 
ATOM     20  C11  11 d         -13.849 205.782 113.520  0.00  0.00     0.002 A 
ATOM     21  C12  11 d         -13.016 206.772 112.976  0.00  0.00     0.000 A 
ATOM     22  C13  11 d         -12.733 207.932 113.714  0.00  0.00     0.002 A 
ATOM     23  C14  11 d         -13.283 208.104 114.994  0.00  0.00     0.029 A 
ENDBRANCH   4  18
TORSDOF 4
ENDMDL
MODEL 4
REMARK VINA RESULT:      -7.3      1.596      2.048
REMARK  4 active torsions:
REMARK  status: ('A' for Active; 'I' for Inactive)
REMARK    1  A    between atoms: C1_1  and  C2_2 
REMARK    2  A    between atoms: C3_3  and  O1_8 
REMARK    3  A    between atoms: N1_9  and  N2_10 
REMARK       I    between atoms: N2_10  and  C8_11 
REMARK       I    between atoms: C8_11  and  N3_13 
REMARK    4  A    between atoms: N3_13  and  C9_14 
ROOT
ATOM      1  N2   11 d         -11.164 209.168 115.208  0.00  0.00    -0.228 N 
ATOM      2  C8   11 d          -9.762 208.940 115.155  0.00  0.00     0.341 C 
ATOM      3  O2   11 d          -9.219 208.016 115.861  0.00  0.00    -0.245 OA
ATOM      4  N3   11 d          -8.975 209.760 114.302  0.00  0.00    -0.308 N 
ATOM      5  H6   11 d         -11.607 209.943 114.613  0.00  0.00     0.194 HD
ATOM      6  H7   11 d          -9.446 210.528 113.718  0.00  0.00     0.170 HD
ENDROOT
BRANCH   1   7
ATOM      7  N1   11 d         -12.033 208.414 116.005  0.00  0.00    -0.175 NA
ATOM      8  C1   11 d         -12.945 207.621 115.480  0.00  0.00     0.064 C 
ATOM      9  C15  11 d         -13.810 206.891 116.473  0.00  0.00     0.073 C 
BRANCH   8  10
ATOM     10  C2   11 d         -13.108 207.305 114.021  0.00  0.00     0.023 A 
ATOM     11  C3   11 d         -12.127 206.629 113.249  0.00  0.00     0.077 A 
ATOM     12  C4   11 d         -12.357 206.378 111.885  0.00  0.00     0.037 A 
ATOM     13  C5   11 d         -13.576 206.729 111.291  0.00  0.00     0.003 A 
ATOM     14  C6   11 d         -14.568 207.355 112.055  0.00  0.00     0.001 A 
ATOM     15  C7   11 d         -14.334 207.645 113.405  0.00  0.00     0.016 A 
BRANCH  11  16
ATOM     16  O1   11 d         -10.884 206.226 113.792  0.00  0.00    -0.360 OA
ATOM     17  H5   11 d         -10.774 205.238 113.507  0.00  0.00     0.217 HD
ENDBRANCH  11  16
ENDBRANCH   8  10
ENDBRANCH   1   7
BRANCH   4  18
ATOM     18  C9   11 d          -7.532 209.596 114.177  0.00  0.00     0.036 A 
ATOM     19  C10  11 d          -7.023 208.742 113.183  0.00  0.00     0.029 A 
ATOM     20  C11  11 d          -5.637 208.594 113.021  0.00  0.00     0.002 A 
ATOM     21  C12  11 d          -4.754 209.299 113.854  0.00  0.00     0.000 A 
ATOM     22  C13  11 d          -5.258 210.149 114.850  0.00  0.00     0.002 A 
ATOM     23  C14  11 d          -6.645 210.297 115.013  0.00  0.00     0.029 A 
ENDBRANCH   4  18
TORSDOF 4
ENDMDL
MODEL 5
REMARK VINA RESULT:      -7.2      3.118      6.905
REMARK  4 active torsions:
REMARK  status: ('A' for Active; 'I' for Inactive)
REMARK    1  A    between atoms: C1_1  and  C2_2 
REMARK    2  A    between atoms: C3_3  and  O1_8 
REMARK    3  A    between atoms: N1_9  and  N2_10 
REMARK       I    between atoms: N2_10  and  C8_11 
REMARK       I    between atoms: C8_11  and  N3_13 
REMARK    4  A    between atoms: N3_13  and  C9_14 
ROOT
ATOM      1  N2   11 d         -11.419 206.524 115.301  0.00  0.00    -0.228 N 
ATOM      2  C8   11 d         -12.486 206.863 114.426  0.00  0.00     0.341 C 
ATOM      3  O2   11 d         -12.826 208.088 114.246  0.00  0.00    -0.245 OA
ATOM      4  N3   11 d         -13.168 205.814 113.753  0.00  0.00    -0.308 N 
ATOM      5  H6   11 d         -11.144 205.497 115.444  0.00  0.00     0.194 HD
ATOM      6  H7   11 d         -12.872 204.795 113.915  0.00  0.00     0.170 HD
ENDROOT
BRANCH   1   7
ATOM      7  N1   11 d         -10.674 207.477 116.005  0.00  0.00    -0.175 NA
ATOM      8  C1   11 d         -10.967 207.807 117.247  0.00  0.00     0.064 C 
ATOM      9  C15  11 d         -10.078 208.860 117.857  0.00  0.00     0.073 C 
BRANCH   8  10
ATOM     10  C2   11 d         -12.004 207.156 118.115  0.00  0.00     0.023 A 
ATOM     11  C3   11 d         -13.389 207.461 118.049  0.00  0.00     0.077 A 
ATOM     12  C4   11 d         -14.293 206.809 118.904  0.00  0.00     0.037 A 
ATOM     13  C5   11 d         -13.852 205.809 119.781  0.00  0.00     0.003 A 
ATOM     14  C6   11 d         -12.495 205.468 119.822  0.00  0.00     0.001 A 
ATOM     15  C7   11 d         -11.579 206.139 119.001  0.00  0.00     0.016 A 
BRANCH  11  16
ATOM     16  O1   11 d         -13.903 208.444 117.171  0.00  0.00    -0.360 OA
ATOM     17  H5   11 d         -13.099 209.057 116.953  0.00  0.00     0.217 HD
ENDBRANCH  11  16
ENDBRANCH   8  10
ENDBRANCH   1   7
BRANCH   4  18
ATOM     18  C9   11 d         -14.271 206.065 112.831  0.00  0.00     0.036 A 
ATOM     19  C10  11 d         -13.984 206.377 111.491  0.00  0.00     0.029 A 
ATOM     20  C11  11 d         -15.028 206.590 110.577  0.00  0.00     0.002 A 
ATOM     21  C12  11 d         -16.362 206.493 111.001  0.00  0.00     0.000 A 
ATOM     22  C13  11 d         -16.652 206.185 112.339  0.00  0.00     0.002 A 
ATOM     23  C14  11 d         -15.608 205.973 113.255  0.00  0.00     0.029 A 
ENDBRANCH   4  18
TORSDOF 4
ENDMDL
MODEL 6
REMARK VINA RESULT:      -7.2      3.045      6.535
REMARK  4 active torsions:
REMARK  status: ('A' for Active; 'I' for Inactive)
REMARK    1  A    between atoms: C1_1  and  C2_2 
REMARK    2  A    between atoms: C3_3  and  O1_8 
REMARK    3  A    between atoms: N1_9  and  N2_10 
REMARK       I    between atoms: N2_10  and  C8_11 
REMARK       I    between atoms: C8_11  and  N3_13 
REMARK    4  A    between atoms: N3_13  and  C9_14 
ROOT
ATOM      1  N2   11 d         -13.789 205.486 115.932  0.00  0.00    -0.228 N 
ATOM      2  C8   11 d         -14.287 206.041 114.721  0.00  0.00     0.341 C 
ATOM      3  O2   11 d         -15.199 206.943 114.737  0.00  0.00    -0.245 OA
ATOM      4  N3   11 d         -13.750 205.572 113.492  0.00  0.00    -0.308 N 
ATOM      5  H6   11 d         -13.027 204.731 115.906  0.00  0.00     0.194 HD
ATOM      6  H7   11 d         -12.988 204.816 113.497  0.00  0.00     0.170 HD
ENDROOT
BRANCH   1   7
ATOM      7  N1   11 d         -14.240 205.881 117.197  0.00  0.00    -0.175 NA
ATOM      8  C1   11 d         -13.466 206.543 118.033  0.00  0.00     0.064 C 
ATOM      9  C15  11 d         -14.095 206.881 119.359  0.00  0.00     0.073 C 
BRANCH   8  10
ATOM     10  C2   11 d         -12.093 207.075 117.737  0.00  0.00     0.023 A 
ATOM     11  C3   11 d         -11.825 208.039 116.729  0.00  0.00     0.077 A 
ATOM     12  C4   11 d         -10.508 208.480 116.512  0.00  0.00     0.037 A 
ATOM     13  C5   11 d          -9.461 208.027 117.324  0.00  0.00     0.003 A 
ATOM     14  C6   11 d          -9.722 207.111 118.350  0.00  0.00     0.001 A 
ATOM     15  C7   11 d         -11.025 206.636 118.550  0.00  0.00     0.016 A 
BRANCH  11  16
ATOM     16  O1   11 d         -12.840 208.555 115.889  0.00  0.00    -0.360 OA
ATOM     17  H5   11 d         -13.725 208.371 116.392  0.00  0.00     0.217 HD
ENDBRANCH  11  16
ENDBRANCH   8  10
ENDBRANCH   1   7
BRANCH   4  18
ATOM     18  C9   11 d         -14.193 206.086 112.201  0.00  0.00     0.036 A 
ATOM     19  C10  11 d         -15.563 206.062 111.888  0.00  0.00     0.029 A 
ATOM     20  C11  11 d         -16.018 206.581 110.667  0.00  0.00     0.002 A 
ATOM     21  C12  11 d         -15.103 207.126 109.752  0.00  0.00     0.000 A 
ATOM     22  C13  11 d         -13.734 207.148 110.059  0.00  0.00     0.002 A 
ATOM     23  C14  11 d         -13.278 206.628 111.281  0.00  0.00     0.029 A 
ENDBRANCH   4  18
TORSDOF 4
ENDMDL
MODEL 7
REMARK VINA RESULT:      -7.2      3.580      6.041
REMARK  4 active torsions:
REMARK  status: ('A' for Active; 'I' for Inactive)
REMARK    1  A    between atoms: C1_1  and  C2_2 
REMARK    2  A    between atoms: C3_3  and  O1_8 
REMARK    3  A    between atoms: N1_9  and  N2_10 
REMARK       I    between atoms: N2_10  and  C8_11 
REMARK       I    between atoms: C8_11  and  N3_13 
REMARK    4  A    between atoms: N3_13  and  C9_14 
ROOT
ATOM      1  N2   11 d         -12.406 205.510 116.121  0.00  0.00    -0.228 N 
ATOM      2  C8   11 d         -12.241 206.350 114.986  0.00  0.00     0.341 C 
ATOM      3  O2   11 d         -12.930 207.425 114.857  0.00  0.00    -0.245 OA
ATOM      4  N3   11 d         -11.294 205.971 113.996  0.00  0.00    -0.308 N 
ATOM      5  H6   11 d         -11.824 204.614 116.217  0.00  0.00     0.194 HD
ATOM      6  H7   11 d         -10.726 205.069 114.119  0.00  0.00     0.170 HD
ENDROOT
BRANCH   1   7
ATOM      7  N1   11 d         -13.301 205.793 117.158  0.00  0.00    -0.175 NA
ATOM      8  C1   11 d         -12.889 206.234 118.330  0.00  0.00     0.064 C 
ATOM      9  C15  11 d         -13.977 206.475 119.343  0.00  0.00     0.073 C 
BRANCH   8  10
ATOM     10  C2   11 d         -11.482 206.616 118.687  0.00  0.00     0.023 A 
ATOM     11  C3   11 d         -10.825 207.764 118.171  0.00  0.00     0.077 A 
ATOM     12  C4   11 d          -9.502 208.047 118.552  0.00  0.00     0.037 A 
ATOM     13  C5   11 d          -8.841 207.241 119.489  0.00  0.00     0.003 A 
ATOM     14  C6   11 d          -9.497 206.132 120.038  0.00  0.00     0.001 A 
ATOM     15  C7   11 d         -10.802 205.820 119.636  0.00  0.00     0.016 A 
BRANCH  11  16
ATOM     16  O1   11 d         -11.442 208.632 117.239  0.00  0.00    -0.360 OA
ATOM     17  H5   11 d         -10.762 209.398 117.094  0.00  0.00     0.217 HD
ENDBRANCH  11  16
ENDBRANCH   8  10
ENDBRANCH   1   7
BRANCH   4  18
ATOM     18  C9   11 d         -11.051 206.772 112.802  0.00  0.00     0.036 A 
ATOM     19  C10  11 d         -10.073 207.782 112.841  0.00  0.00     0.029 A 
ATOM     20  C11  11 d          -9.798 208.544 111.696  0.00  0.00     0.002 A 
ATOM     21  C12  11 d         -10.501 208.300 110.505  0.00  0.00     0.000 A 
ATOM     22  C13  11 d         -11.481 207.295 110.463  0.00  0.00     0.002 A 
ATOM     23  C14  11 d         -11.758 206.533 111.610  0.00  0.00     0.029 A 
ENDBRANCH   4  18
TORSDOF 4
ENDMDL
MODEL 8
REMARK VINA RESULT:      -7.2      4.490      7.339
REMARK  4 active torsions:
REMARK  status: ('A' for Active; 'I' for Inactive)
REMARK    1  A    between atoms: C1_1  and  C2_2 
REMARK    2  A    between atoms: C3_3  and  O1_8 
REMARK    3  A    between atoms: N1_9  and  N2_10 
REMARK       I    between atoms: N2_10  and  C8_11 
REMARK       I    between atoms: C8_11  and  N3_13 
REMARK    4  A    between atoms: N3_13  and  C9_14 
ROOT
ATOM      1  N2   11 d         -14.433 207.049 118.988  0.00  0.00    -0.228 N 
ATOM      2  C8   11 d         -13.976 206.758 117.674  0.00  0.00     0.341 C 
ATOM      3  O2   11 d         -12.909 206.071 117.485  0.00  0.00    -0.245 OA
ATOM      4  N3   11 d         -14.730 207.247 116.573  0.00  0.00    -0.308 N 
ATOM      5  H6   11 d         -15.326 207.625 119.134  0.00  0.00     0.194 HD
ATOM      6  H7   11 d         -15.620 207.821 116.749  0.00  0.00     0.170 HD
ENDROOT
BRANCH   1   7
ATOM      7  N1   11 d         -13.774 206.608 120.142  0.00  0.00    -0.175 NA
ATOM      8  C1   11 d         -14.264 205.644 120.895  0.00  0.00     0.064 C 
ATOM      9  C15  11 d         -13.442 205.298 122.109  0.00  0.00     0.073 C 
BRANCH   8  10
ATOM     10  C2   11 d         -15.472 204.808 120.588  0.00  0.00     0.023 A 
ATOM     11  C3   11 d         -15.527 203.866 119.526  0.00  0.00     0.077 A 
ATOM     12  C4   11 d         -16.702 203.128 119.303  0.00  0.00     0.037 A 
ATOM     13  C5   11 d         -17.803 203.262 120.158  0.00  0.00     0.003 A 
ATOM     14  C6   11 d         -17.743 204.154 121.236  0.00  0.00     0.001 A 
ATOM     15  C7   11 d         -16.591 204.924 121.444  0.00  0.00     0.016 A 
BRANCH  11  16
ATOM     16  O1   11 d         -14.443 203.665 118.639  0.00  0.00    -0.360 OA
ATOM     17  H5   11 d         -14.393 202.641 118.505  0.00  0.00     0.217 HD
ENDBRANCH  11  16
ENDBRANCH   8  10
ENDBRANCH   1   7
BRANCH   4  18
ATOM     18  C9   11 d         -14.343 206.994 115.190  0.00  0.00     0.036 A 
ATOM     19  C10  11 d         -13.472 207.892 114.547  0.00  0.00     0.029 A 
ATOM     20  C11  11 d         -13.060 207.654 113.228  0.00  0.00     0.002 A 
ATOM     21  C12  11 d         -13.517 206.516 112.545  0.00  0.00     0.000 A 
ATOM     22  C13  11 d         -14.389 205.619 113.181  0.00  0.00     0.002 A 
ATOM     23  C14  11 d         -14.803 205.858 114.501  0.00  0.00     0.029 A 
ENDBRANCH   4  18
TORSDOF 4
ENDMDL
MODEL 9
REMARK VINA RESULT:      -7.0      2.521      3.514
REMARK  4 active torsions:
REMARK  status: ('A' for Active; 'I' for Inactive)
REMARK    1  A    between atoms: C1_1  and  C2_2 
REMARK    2  A    between atoms: C3_3  and  O1_8 
REMARK    3  A    between atoms: N1_9  and  N2_10 
REMARK       I    between atoms: N2_10  and  C8_11 
REMARK       I    between atoms: C8_11  and  N3_13 
REMARK    4  A    between atoms: N3_13  and  C9_14 
ROOT
ATOM      1  N2   11 d         -10.509 209.085 116.315  0.00  0.00    -0.228 N 
ATOM      2  C8   11 d          -9.159 208.898 115.911  0.00  0.00     0.341 C 
ATOM      3  O2   11 d          -8.411 208.035 116.495  0.00  0.00    -0.245 OA
ATOM      4  N3   11 d          -8.657 209.690 114.843  0.00  0.00    -0.308 N 
ATOM      5  H6   11 d         -11.124 209.810 115.819  0.00  0.00     0.194 HD
ATOM      6  H7   11 d          -9.296 210.408 114.365  0.00  0.00     0.170 HD
ENDROOT
BRANCH   1   7
ATOM      7  N1   11 d         -11.107 208.352 117.346  0.00  0.00    -0.175 NA
ATOM      8  C1   11 d         -12.171 207.604 117.138  0.00  0.00     0.064 C 
ATOM      9  C15  11 d         -12.703 206.892 118.355  0.00  0.00     0.073 C 
BRANCH   8  10
ATOM     10  C2   11 d         -12.806 207.317 115.808  0.00  0.00     0.023 A 
ATOM     11  C3   11 d         -13.929 208.025 115.304  0.00  0.00     0.077 A 
ATOM     12  C4   11 d         -14.467 207.688 114.050  0.00  0.00     0.037 A 
ATOM     13  C5   11 d         -13.866 206.701 113.258  0.00  0.00     0.003 A 
ATOM     14  C6   11 d         -12.731 206.029 113.726  0.00  0.00     0.001 A 
ATOM     15  C7   11 d         -12.210 206.330 114.991  0.00  0.00     0.016 A 
BRANCH  11  16
ATOM     16  O1   11 d         -14.570 209.047 116.043  0.00  0.00    -0.360 OA
ATOM     17  H5   11 d         -15.553 209.038 115.719  0.00  0.00     0.217 HD
ENDBRANCH  11  16
ENDBRANCH   8  10
ENDBRANCH   1   7
BRANCH   4  18
ATOM     18  C9   11 d          -7.288 209.565 114.355  0.00  0.00     0.036 A 
ATOM     19  C10  11 d          -6.274 210.328 114.960  0.00  0.00     0.029 A 
ATOM     20  C11  11 d          -4.944 210.201 114.531  0.00  0.00     0.002 A 
ATOM     21  C12  11 d          -4.623 209.310 113.495  0.00  0.00     0.000 A 
ATOM     22  C13  11 d          -5.633 208.549 112.886  0.00  0.00     0.002 A 
ATOM     23  C14  11 d          -6.965 208.677 113.314  0.00  0.00     0.029 A 
ENDBRANCH   4  18
TORSDOF 4
ENDMDL
MODEL 10
REMARK VINA RESULT:      -7.0      2.553      3.343
REMARK  4 active torsions:
REMARK  status: ('A' for Active; 'I' for Inactive)
REMARK    1  A    between atoms: C1_1  and  C2_2 
REMARK    2  A    between atoms: C3_3  and  O1_8 
REMARK    3  A    between atoms: N1_9  and  N2_10 
REMARK       I    between atoms: N2_10  and  C8_11 
REMARK       I    between atoms: C8_11  and  N3_13 
REMARK    4  A    between atoms: N3_13  and  C9_14 
ROOT
ATOM      1  N2   11 d         -14.670 207.993 114.430  0.00  0.00    -0.228 N 
ATOM      2  C8   11 d         -13.604 207.589 115.280  0.00  0.00     0.341 C 
ATOM      3  O2   11 d         -13.534 206.386 115.721  0.00  0.00    -0.245 OA
ATOM      4  N3   11 d         -12.618 208.550 115.630  0.00  0.00    -0.308 N 
ATOM      5  H6   11 d         -14.719 209.002 114.069  0.00  0.00     0.194 HD
ATOM      6  H7   11 d         -12.692 209.553 115.253  0.00  0.00     0.170 HD
ENDROOT
BRANCH   1   7
ATOM      7  N1   11 d         -15.688 207.127 114.016  0.00  0.00    -0.175 NA
ATOM      8  C1   11 d         -15.764 206.690 112.775  0.00  0.00     0.064 C 
ATOM      9  C15  11 d         -16.927 205.777 112.486  0.00  0.00     0.073 C 
BRANCH   8  10
ATOM     10  C2   11 d         -14.752 206.922 111.691  0.00  0.00     0.023 A 
ATOM     11  C3   11 d         -13.393 206.521 111.785  0.00  0.00     0.077 A 
ATOM     12  C4   11 d         -12.508 206.784 110.725  0.00  0.00     0.037 A 
ATOM     13  C5   11 d         -12.966 207.381 109.544  0.00  0.00     0.003 A 
ATOM     14  C6   11 d         -14.315 207.739 109.423  0.00  0.00     0.001 A 
ATOM     15  C7   11 d         -15.197 207.517 110.489  0.00  0.00     0.016 A 
BRANCH  11  16
ATOM     16  O1   11 d         -12.870 205.893 112.940  0.00  0.00    -0.360 OA
ATOM     17  H5   11 d         -11.842 205.968 112.845  0.00  0.00     0.217 HD
ENDBRANCH  11  16
ENDBRANCH   8  10
ENDBRANCH   1   7
BRANCH   4  18
ATOM     18  C9   11 d         -11.485 208.227 116.490  0.00  0.00     0.036 A 
ATOM     19  C10  11 d         -10.180 208.447 116.015  0.00  0.00     0.029 A 
ATOM     20  C11  11 d          -9.075 208.175 116.835  0.00  0.00     0.002 A 
ATOM     21  C12  11 d          -9.270 207.682 118.135  0.00  0.00     0.000 A 
ATOM     22  C13  11 d         -10.571 207.457 118.612  0.00  0.00     0.002 A 
ATOM     23  C14  11 d         -11.678 207.728 117.790  0.00  0.00     0.029 A 
ENDBRANCH   4  18
TORSDOF 4
ENDMDL
MODEL 11
REMARK VINA RESULT:      -7.0      4.022      7.926
REMARK  4 active torsions:
REMARK  status: ('A' for Active; 'I' for Inactive)
REMARK    1  A    between atoms: C1_1  and  C2_2 
REMARK    2  A    between atoms: C3_3  and  O1_8 
REMARK    3  A    between atoms: N1_9  and  N2_10 
REMARK       I    between atoms: N2_10  and  C8_11 
REMARK       I    between atoms: C8_11  and  N3_13 
REMARK    4  A    between atoms: N3_13  and  C9_14 
ROOT
ATOM      1  N2   11 d         -10.023 209.087 118.515  0.00  0.00    -0.228 N 
ATOM      2  C8   11 d         -10.323 208.408 117.303  0.00  0.00     0.341 C 
ATOM      3  O2   11 d         -10.201 207.134 117.215  0.00  0.00    -0.245 OA
ATOM      4  N3   11 d         -10.761 209.175 116.190  0.00  0.00    -0.308 N 
ATOM      5  H6   11 d         -10.128 210.153 118.577  0.00  0.00     0.194 HD
ATOM      6  H7   11 d         -10.857 210.240 116.280  0.00  0.00     0.170 HD
ENDROOT
BRANCH   1   7
ATOM      7  N1   11 d          -9.594 208.430 119.674  0.00  0.00    -0.175 NA
ATOM      8  C1   11 d          -8.316 208.321 119.977  0.00  0.00     0.064 C 
ATOM      9  C15  11 d          -8.020 207.571 121.250  0.00  0.00     0.073 C 
BRANCH   8  10
ATOM     10  C2   11 d          -7.174 208.965 119.245  0.00  0.00     0.023 A 
ATOM     11  C3   11 d          -6.633 208.460 118.034  0.00  0.00     0.077 A 
ATOM     12  C4   11 d          -5.557 209.121 117.416  0.00  0.00     0.037 A 
ATOM     13  C5   11 d          -5.053 210.315 117.947  0.00  0.00     0.003 A 
ATOM     14  C6   11 d          -5.610 210.846 119.117  0.00  0.00     0.001 A 
ATOM     15  C7   11 d          -6.657 210.175 119.762  0.00  0.00     0.016 A 
BRANCH  11  16
ATOM     16  O1   11 d          -7.110 207.272 117.431  0.00  0.00    -0.360 OA
ATOM     17  H5   11 d          -8.056 207.507 117.086  0.00  0.00     0.217 HD
ENDBRANCH  11  16
ENDBRANCH   8  10
ENDBRANCH   1   7
BRANCH   4  18
ATOM     18  C9   11 d         -11.098 208.567 114.908  0.00  0.00     0.036 A 
ATOM     19  C10  11 d         -10.094 208.421 113.934  0.00  0.00     0.029 A 
ATOM     20  C11  11 d         -10.385 207.809 112.706  0.00  0.00     0.002 A 
ATOM     21  C12  11 d         -11.682 207.341 112.445  0.00  0.00     0.000 A 
ATOM     22  C13  11 d         -12.688 207.488 113.413  0.00  0.00     0.002 A 
ATOM     23  C14  11 d         -12.398 208.102 114.642  0.00  0.00     0.029 A 
ENDBRANCH   4  18
TORSDOF 4
ENDMDL
MODEL 12
REMARK VINA RESULT:      -6.9      2.744      8.079
REMARK  4 active torsions:
REMARK  status: ('A' for Active; 'I' for Inactive)
REMARK    1  A    between atoms: C1_1  and  C2_2 
REMARK    2  A    between atoms: C3_3  and  O1_8 
REMARK    3  A    between atoms: N1_9  and  N2_10 
REMARK       I    between atoms: N2_10  and  C8_11 
REMARK       I    between atoms: C8_11  and  N3_13 
REMARK    4  A    between atoms: N3_13  and  C9_14 
ROOT
ATOM      1  N2   11 d          -8.264 208.640 113.903  0.00  0.00    -0.228 N 
ATOM      2  C8   11 d          -9.648 208.347 114.044  0.00  0.00     0.341 C 
ATOM      3  O2   11 d         -10.417 209.113 114.729  0.00  0.00    -0.245 OA
ATOM      4  N3   11 d         -10.160 207.183 113.409  0.00  0.00    -0.308 N 
ATOM      5  H6   11 d          -7.631 207.992 113.329  0.00  0.00     0.194 HD
ATOM      6  H7   11 d          -9.503 206.553 112.840  0.00  0.00     0.170 HD
ENDROOT
BRANCH   1   7
ATOM      7  N1   11 d          -7.658 209.763 114.477  0.00  0.00    -0.175 NA
ATOM      8  C1   11 d          -6.417 209.732 114.919  0.00  0.00     0.064 C 
ATOM      9  C15  11 d          -5.918 211.019 115.523  0.00  0.00     0.073 C 
BRANCH   8  10
ATOM     10  C2   11 d          -5.451 208.593 114.765  0.00  0.00     0.023 A 
ATOM     11  C3   11 d          -4.606 208.426 113.637  0.00  0.00     0.077 A 
ATOM     12  C4   11 d          -3.734 207.326 113.569  0.00  0.00     0.037 A 
ATOM     13  C5   11 d          -3.640 206.423 114.636  0.00  0.00     0.003 A 
ATOM     14  C6   11 d          -4.436 206.604 115.773  0.00  0.00     0.001 A 
ATOM     15  C7   11 d          -5.337 207.676 115.834  0.00  0.00     0.016 A 
BRANCH  11  16
ATOM     16  O1   11 d          -4.633 209.314 112.535  0.00  0.00    -0.360 OA
ATOM     17  H5   11 d          -3.741 209.834 112.587  0.00  0.00     0.217 HD
ENDBRANCH  11  16
ENDBRANCH   8  10
ENDBRANCH   1   7
BRANCH   4  18
ATOM     18  C9   11 d         -11.566 206.804 113.492  0.00  0.00     0.036 A 
ATOM     19  C10  11 d         -12.403 207.033 112.385  0.00  0.00     0.029 A 
ATOM     20  C11  11 d         -13.751 206.648 112.429  0.00  0.00     0.002 A 
ATOM     21  C12  11 d         -14.269 206.032 113.579  0.00  0.00     0.000 A 
ATOM     22  C13  11 d         -13.437 205.805 114.687  0.00  0.00     0.002 A 
ATOM     23  C14  11 d         -12.088 206.192 114.645  0.00  0.00     0.029 A 
ENDBRANCH   4  18
TORSDOF 4
ENDMDL
MODEL 13
REMARK VINA RESULT:      -6.9      2.077      3.588
REMARK  4 active torsions:
REMARK  status: ('A' for Active; 'I' for Inactive)
REMARK    1  A    between atoms: C1_1  and  C2_2 
REMARK    2  A    between atoms: C3_3  and  O1_8 
REMARK    3  A    between atoms: N1_9  and  N2_10 
REMARK       I    between atoms: N2_10  and  C8_11 
REMARK       I    between atoms: C8_11  and  N3_13 
REMARK    4  A    between atoms: N3_13  and  C9_14 
ROOT
ATOM      1  N2   11 d         -10.303 208.400 113.598  0.00  0.00    -0.228 N 
ATOM      2  C8   11 d          -8.923 208.515 113.922  0.00  0.00     0.341 C 
ATOM      3  O2   11 d          -8.018 208.219 113.062  0.00  0.00    -0.245 OA
ATOM      4  N3   11 d          -8.570 208.965 115.223  0.00  0.00    -0.308 N 
ATOM      5  H6   11 d         -11.050 208.650 114.325  0.00  0.00     0.194 HD
ATOM      6  H7   11 d          -9.340 209.208 115.931  0.00  0.00     0.170 HD
ENDROOT
BRANCH   1   7
ATOM      7  N1   11 d         -10.761 207.977 112.345  0.00  0.00    -0.175 NA
ATOM      8  C1   11 d         -11.853 207.251 112.215  0.00  0.00     0.064 C 
ATOM      9  C15  11 d         -12.202 206.865 110.801  0.00  0.00     0.073 C 
BRANCH   8  10
ATOM     10  C2   11 d         -12.812 206.890 113.312  0.00  0.00     0.023 A 
ATOM     11  C3   11 d         -12.443 206.149 114.466  0.00  0.00     0.077 A 
ATOM     12  C4   11 d         -13.406 205.847 115.444  0.00  0.00     0.037 A 
ATOM     13  C5   11 d         -14.717 206.325 115.326  0.00  0.00     0.003 A 
ATOM     14  C6   11 d         -15.080 207.095 114.214  0.00  0.00     0.001 A 
ATOM     15  C7   11 d         -14.138 207.369 113.214  0.00  0.00     0.016 A 
BRANCH  11  16
ATOM     16  O1   11 d         -11.130 205.656 114.658  0.00  0.00    -0.360 OA
ATOM     17  H5   11 d         -10.510 206.380 114.257  0.00  0.00     0.217 HD
ENDBRANCH  11  16
ENDBRANCH   8  10
ENDBRANCH   1   7
BRANCH   4  18
ATOM     18  C9   11 d          -7.183 209.120 115.645  0.00  0.00     0.036 A 
ATOM     19  C10  11 d          -6.445 210.223 115.179  0.00  0.00     0.029 A 
ATOM     20  C11  11 d          -5.119 210.412 115.596  0.00  0.00     0.002 A 
ATOM     21  C12  11 d          -4.525 209.499 116.482  0.00  0.00     0.000 A 
ATOM     22  C13  11 d          -5.257 208.395 116.946  0.00  0.00     0.002 A 
ATOM     23  C14  11 d          -6.584 208.205 116.528  0.00  0.00     0.029 A 
ENDBRANCH   4  18
TORSDOF 4
ENDMDL
MODEL 14
REMARK VINA RESULT:      -6.9      2.295      3.929
REMARK  4 active torsions:
REMARK  status: ('A' for Active; 'I' for Inactive)
REMARK    1  A    between atoms: C1_1  and  C2_2 
REMARK    2  A    between atoms: C3_3  and  O1_8 
REMARK    3  A    between atoms: N1_9  and  N2_10 
REMARK       I    between atoms: N2_10  and  C8_11 
REMARK       I    between atoms: C8_11  and  N3_13 
REMARK    4  A    between atoms: N3_13  and  C9_14 
ROOT
ATOM      1  N2   11 d         -12.462 208.162 113.702  0.00  0.00    -0.228 N 
ATOM      2  C8   11 d         -11.093 207.877 113.447  0.00  0.00     0.341 C 
ATOM      3  O2   11 d         -10.725 206.710 113.060  0.00  0.00    -0.245 OA
ATOM      4  N3   11 d         -10.140 208.915 113.631  0.00  0.00    -0.308 N 
ATOM      5  H6   11 d         -12.757 209.141 114.026  0.00  0.00     0.194 HD
ATOM      6  H7   11 d         -10.465 209.885 113.955  0.00  0.00     0.170 HD
ENDROOT
BRANCH   1   7
ATOM      7  N1   11 d         -13.482 207.218 113.543  0.00  0.00    -0.175 NA
ATOM      8  C1   11 d         -13.858 206.430 114.530  0.00  0.00     0.064 C 
ATOM      9  C15  11 d         -14.958 205.458 114.193  0.00  0.00     0.073 C 
BRANCH   8  10
ATOM     10  C2   11 d         -13.377 206.500 115.951  0.00  0.00     0.023 A 
ATOM     11  C3   11 d         -13.630 207.599 116.813  0.00  0.00     0.077 A 
ATOM     12  C4   11 d         -13.138 207.588 118.129  0.00  0.00     0.037 A 
ATOM     13  C5   11 d         -12.452 206.471 118.625  0.00  0.00     0.003 A 
ATOM     14  C6   11 d         -12.236 205.363 117.797  0.00  0.00     0.001 A 
ATOM     15  C7   11 d         -12.690 205.380 116.471  0.00  0.00     0.016 A 
BRANCH  11  16
ATOM     16  O1   11 d         -14.336 208.748 116.383  0.00  0.00    -0.360 OA
ATOM     17  H5   11 d         -13.739 209.548 116.656  0.00  0.00     0.217 HD
ENDBRANCH  11  16
ENDBRANCH   8  10
ENDBRANCH   1   7
BRANCH   4  18
ATOM     18  C9   11 d          -8.716 208.719 113.388  0.00  0.00     0.036 A 
ATOM     19  C10  11 d          -8.257 208.595 112.065  0.00  0.00     0.029 A 
ATOM     20  C11  11 d          -6.888 208.438 111.804  0.00  0.00     0.002 A 
ATOM     21  C12  11 d          -5.970 208.404 112.866  0.00  0.00     0.000 A 
ATOM     22  C13  11 d          -6.424 208.523 114.188  0.00  0.00     0.002 A 
ATOM     23  C14  11 d          -7.795 208.679 114.450  0.00  0.00     0.029 A 
ENDBRANCH   4  18
TORSDOF 4
ENDMDL
MODEL 15
REMARK VINA RESULT:      -6.9     14.345     17.405
REMARK  4 active torsions:
REMARK  status: ('A' for Active; 'I' for Inactive)
REMARK    1  A    between atoms: C1_1  and  C2_2 
REMARK    2  A    between atoms: C3_3  and  O1_8 
REMARK    3  A    between atoms: N1_9  and  N2_10 
REMARK       I    between atoms: N2_10  and  C8_11 
REMARK       I    between atoms: C8_11  and  N3_13 
REMARK    4  A    between atoms: N3_13  and  C9_14 
ROOT
ATOM      1  N2   11 d          -9.016 217.582 126.276  0.00  0.00    -0.228 N 
ATOM      2  C8   11 d          -9.753 216.385 126.063  0.00  0.00     0.341 C 
ATOM      3  O2   11 d          -9.324 215.260 126.507  0.00  0.00    -0.245 OA
ATOM      4  N3   11 d         -10.977 216.464 125.345  0.00  0.00    -0.308 N 
ATOM      5  H6   11 d          -9.384 218.516 125.899  0.00  0.00     0.194 HD
ATOM      6  H7   11 d         -11.321 217.413 124.980  0.00  0.00     0.170 HD
ENDROOT
BRANCH   1   7
ATOM      7  N1   11 d          -7.805 217.620 126.977  0.00  0.00    -0.175 NA
ATOM      8  C1   11 d          -6.837 218.450 126.644  0.00  0.00     0.064 C 
ATOM      9  C15  11 d          -5.593 218.356 127.488  0.00  0.00     0.073 C 
BRANCH   8  10
ATOM     10  C2   11 d          -6.914 219.528 125.602  0.00  0.00     0.023 A 
ATOM     11  C3   11 d          -7.958 220.488 125.541  0.00  0.00     0.077 A 
ATOM     12  C4   11 d          -7.958 221.462 124.527  0.00  0.00     0.037 A 
ATOM     13  C5   11 d          -6.901 221.538 123.611  0.00  0.00     0.003 A 
ATOM     14  C6   11 d          -5.843 220.625 123.691  0.00  0.00     0.001 A 
ATOM     15  C7   11 d          -5.853 219.626 124.674  0.00  0.00     0.016 A 
BRANCH  11  16
ATOM     16  O1   11 d          -9.044 220.481 126.448  0.00  0.00    -0.360 OA
ATOM     17  H5   11 d          -8.974 221.379 126.958  0.00  0.00     0.217 HD
ENDBRANCH  11  16
ENDBRANCH   8  10
ENDBRANCH   1   7
BRANCH   4  18
ATOM     18  C9   11 d         -11.804 215.292 125.084  0.00  0.00     0.036 A 
ATOM     19  C10  11 d         -12.487 214.683 126.152  0.00  0.00     0.029 A 
ATOM     20  C11  11 d         -13.314 213.574 125.921  0.00  0.00     0.002 A 
ATOM     21  C12  11 d         -13.463 213.069 124.619  0.00  0.00     0.000 A 
ATOM     22  C13  11 d         -12.781 213.671 123.551  0.00  0.00     0.002 A 
ATOM     23  C14  11 d         -11.951 214.780 123.782  0.00  0.00     0.029 A 
ENDBRANCH   4  18
TORSDOF 4
ENDMDL
MODEL 16
REMARK VINA RESULT:      -6.8      3.802      6.876
REMARK  4 active torsions:
REMARK  status: ('A' for Active; 'I' for Inactive)
REMARK    1  A    between atoms: C1_1  and  C2_2 
REMARK    2  A    between atoms: C3_3  and  O1_8 
REMARK    3  A    between atoms: N1_9  and  N2_10 
REMARK       I    between atoms: N2_10  and  C8_11 
REMARK       I    between atoms: C8_11  and  N3_13 
REMARK    4  A    between atoms: N3_13  and  C9_14 
ROOT
ATOM      1  N2   11 d         -13.579 205.526 115.988  0.00  0.00    -0.228 N 
ATOM      2  C8   11 d         -13.559 205.524 117.410  0.00  0.00     0.341 C 
ATOM      3  O2   11 d         -12.509 205.884 118.054  0.00  0.00    -0.245 OA
ATOM      4  N3   11 d         -14.731 205.113 118.101  0.00  0.00    -0.308 N 
ATOM      5  H6   11 d         -14.462 205.222 115.461  0.00  0.00     0.194 HD
ATOM      6  H7   11 d         -15.600 204.814 117.547  0.00  0.00     0.170 HD
ENDROOT
BRANCH   1   7
ATOM      7  N1   11 d         -12.486 205.921 115.209  0.00  0.00    -0.175 NA
ATOM      8  C1   11 d         -12.592 206.105 113.908  0.00  0.00     0.064 C 
ATOM      9  C15  11 d         -11.320 206.514 113.212  0.00  0.00     0.073 C 
BRANCH   8  10
ATOM     10  C2   11 d         -13.862 206.059 113.108  0.00  0.00     0.023 A 
ATOM     11  C3   11 d         -15.018 206.820 113.425  0.00  0.00     0.077 A 
ATOM     12  C4   11 d         -16.169 206.713 112.626  0.00  0.00     0.037 A 
ATOM     13  C5   11 d         -16.170 205.911 111.478  0.00  0.00     0.003 A 
ATOM     14  C6   11 d         -15.019 205.192 111.131  0.00  0.00     0.001 A 
ATOM     15  C7   11 d         -13.879 205.261 111.942  0.00  0.00     0.016 A 
BRANCH  11  16
ATOM     16  O1   11 d         -15.077 207.667 114.557  0.00  0.00    -0.360 OA
ATOM     17  H5   11 d         -16.076 207.688 114.825  0.00  0.00     0.217 HD
ENDBRANCH  11  16
ENDBRANCH   8  10
ENDBRANCH   1   7
BRANCH   4  18
ATOM     18  C9   11 d         -14.807 205.085 119.557  0.00  0.00     0.036 A 
ATOM     19  C10  11 d         -14.799 206.298 120.267  0.00  0.00     0.029 A 
ATOM     20  C11  11 d         -14.904 206.299 121.666  0.00  0.00     0.002 A 
ATOM     21  C12  11 d         -15.018 205.085 122.362  0.00  0.00     0.000 A 
ATOM     22  C13  11 d         -15.022 203.871 121.657  0.00  0.00     0.002 A 
ATOM     23  C14  11 d         -14.915 203.870 120.257  0.00  0.00     0.029 A 
ENDBRANCH   4  18
TORSDOF 4
ENDMDL
MODEL 17
REMARK VINA RESULT:      -6.8      2.801      7.998
REMARK  4 active torsions:
REMARK  status: ('A' for Active; 'I' for Inactive)
REMARK    1  A    between atoms: C1_1  and  C2_2 
REMARK    2  A    between atoms: C3_3  and  O1_8 
REMARK    3  A    between atoms: N1_9  and  N2_10 
REMARK       I    between atoms: N2_10  and  C8_11 
REMARK       I    between atoms: C8_11  and  N3_13 
REMARK    4  A    between atoms: N3_13  and  C9_14 
ROOT
ATOM      1  N2   11 d          -8.778 208.817 114.889  0.00  0.00    -0.228 N 
ATOM      2  C8   11 d          -9.808 208.572 113.941  0.00  0.00     0.341 C 
ATOM      3  O2   11 d          -9.819 209.176 112.809  0.00  0.00    -0.245 OA
ATOM      4  N3   11 d         -10.828 207.641 114.277  0.00  0.00    -0.308 N 
ATOM      5  H6   11 d          -8.780 208.306 115.832  0.00  0.00     0.194 HD
ATOM      6  H7   11 d         -10.805 207.145 115.229  0.00  0.00     0.170 HD
ENDROOT
BRANCH   1   7
ATOM      7  N1   11 d          -7.721 209.704 114.657  0.00  0.00    -0.175 NA
ATOM      8  C1   11 d          -6.538 209.534 115.212  0.00  0.00     0.064 C 
ATOM      9  C15  11 d          -5.513 210.585 114.875  0.00  0.00     0.073 C 
BRANCH   8  10
ATOM     10  C2   11 d          -6.106 208.352 116.032  0.00  0.00     0.023 A 
ATOM     11  C3   11 d          -6.749 207.951 117.232  0.00  0.00     0.077 A 
ATOM     12  C4   11 d          -6.276 206.835 117.943  0.00  0.00     0.037 A 
ATOM     13  C5   11 d          -5.213 206.070 117.446  0.00  0.00     0.003 A 
ATOM     14  C6   11 d          -4.602 206.430 116.239  0.00  0.00     0.001 A 
ATOM     15  C7   11 d          -5.040 207.564 115.542  0.00  0.00     0.016 A 
BRANCH  11  16
ATOM     16  O1   11 d          -7.842 208.666 117.778  0.00  0.00    -0.360 OA
ATOM     17  H5   11 d          -8.592 207.963 117.893  0.00  0.00     0.217 HD
ENDBRANCH  11  16
ENDBRANCH   8  10
ENDBRANCH   1   7
BRANCH   4  18
ATOM     18  C9   11 d         -11.922 207.320 113.367  0.00  0.00     0.036 A 
ATOM     19  C10  11 d         -13.211 207.808 113.647  0.00  0.00     0.029 A 
ATOM     20  C11  11 d         -14.273 207.541 112.770  0.00  0.00     0.002 A 
ATOM     21  C12  11 d         -14.051 206.784 111.609  0.00  0.00     0.000 A 
ATOM     22  C13  11 d         -12.766 206.293 111.328  0.00  0.00     0.002 A 
ATOM     23  C14  11 d         -11.703 206.558 112.206  0.00  0.00     0.029 A 
ENDBRANCH   4  18
TORSDOF 4
ENDMDL
MODEL 18
REMARK VINA RESULT:      -6.8      3.953      6.208
REMARK  4 active torsions:
REMARK  status: ('A' for Active; 'I' for Inactive)
REMARK    1  A    between atoms: C1_1  and  C2_2 
REMARK    2  A    between atoms: C3_3  and  O1_8 
REMARK    3  A    between atoms: N1_9  and  N2_10 
REMARK       I    between atoms: N2_10  and  C8_11 
REMARK       I    between atoms: C8_11  and  N3_13 
REMARK    4  A    between atoms: N3_13  and  C9_14 
ROOT
ATOM      1  N2   11 d          -7.718 209.489 115.268  0.00  0.00    -0.228 N 
ATOM      2  C8   11 d          -6.703 210.107 116.048  0.00  0.00     0.341 C 
ATOM      3  O2   11 d          -6.038 211.104 115.591  0.00  0.00    -0.245 OA
ATOM      4  N3   11 d          -6.442 209.593 117.347  0.00  0.00    -0.308 N 
ATOM      5  H6   11 d          -8.267 208.655 115.660  0.00  0.00     0.194 HD
ATOM      6  H7   11 d          -7.007 208.757 117.713  0.00  0.00     0.170 HD
ENDROOT
BRANCH   1   7
ATOM      7  N1   11 d          -8.064 209.920 113.982  0.00  0.00    -0.175 NA
ATOM      8  C1   11 d          -9.076 209.394 113.323  0.00  0.00     0.064 C 
ATOM      9  C15  11 d          -9.307 209.957 111.945  0.00  0.00     0.073 C 
BRANCH   8  10
ATOM     10  C2   11 d         -10.060 208.395 113.860  0.00  0.00     0.023 A 
ATOM     11  C3   11 d         -10.699 208.522 115.122  0.00  0.00     0.077 A 
ATOM     12  C4   11 d         -11.603 207.537 115.554  0.00  0.00     0.037 A 
ATOM     13  C5   11 d         -11.934 206.458 114.723  0.00  0.00     0.003 A 
ATOM     14  C6   11 d         -11.343 206.348 113.458  0.00  0.00     0.001 A 
ATOM     15  C7   11 d         -10.411 207.304 113.034  0.00  0.00     0.016 A 
BRANCH  11  16
ATOM     16  O1   11 d         -10.428 209.599 116.000  0.00  0.00    -0.360 OA
ATOM     17  H5   11 d          -9.579 210.050 115.618  0.00  0.00     0.217 HD
ENDBRANCH  11  16
ENDBRANCH   8  10
ENDBRANCH   1   7
BRANCH   4  18
ATOM     18  C9   11 d          -5.425 210.164 118.222  0.00  0.00     0.036 A 
ATOM     19  C10  11 d          -4.102 209.695 118.133  0.00  0.00     0.029 A 
ATOM     20  C11  11 d          -3.100 210.252 118.941  0.00  0.00     0.002 A 
ATOM     21  C12  11 d          -3.415 211.281 119.841  0.00  0.00     0.000 A 
ATOM     22  C13  11 d          -4.735 211.750 119.936  0.00  0.00     0.002 A 
ATOM     23  C14  11 d          -5.739 211.192 119.129  0.00  0.00     0.029 A 
ENDBRANCH   4  18
TORSDOF 4
ENDMDL
MODEL 19
REMARK VINA RESULT:      -6.7      2.582      7.793
REMARK  4 active torsions:
REMARK  status: ('A' for Active; 'I' for Inactive)
REMARK    1  A    between atoms: C1_1  and  C2_2 
REMARK    2  A    between atoms: C3_3  and  O1_8 
REMARK    3  A    between atoms: N1_9  and  N2_10 
REMARK       I    between atoms: N2_10  and  C8_11 
REMARK       I    between atoms: C8_11  and  N3_13 
REMARK    4  A    between atoms: N3_13  and  C9_14 
ROOT
ATOM      1  N2   11 d          -8.993 208.545 115.901  0.00  0.00    -0.228 N 
ATOM      2  C8   11 d         -10.328 208.059 115.852  0.00  0.00     0.341 C 
ATOM      3  O2   11 d         -10.844 207.453 116.858  0.00  0.00    -0.245 OA
ATOM      4  N3   11 d         -11.077 208.259 114.661  0.00  0.00    -0.308 N 
ATOM      5  H6   11 d          -8.571 209.050 115.053  0.00  0.00     0.194 HD
ATOM      6  H7   11 d         -10.629 208.768 113.829  0.00  0.00     0.170 HD
ENDROOT
BRANCH   1   7
ATOM      7  N1   11 d          -8.170 208.411 117.025  0.00  0.00    -0.175 NA
ATOM      8  C1   11 d          -6.861 208.306 116.919  0.00  0.00     0.064 C 
ATOM      9  C15  11 d          -6.121 208.153 118.222  0.00  0.00     0.073 C 
BRANCH   8  10
ATOM     10  C2   11 d          -6.062 208.442 115.655  0.00  0.00     0.023 A 
ATOM     11  C3   11 d          -6.088 209.597 114.829  0.00  0.00     0.077 A 
ATOM     12  C4   11 d          -5.314 209.640 113.657  0.00  0.00     0.037 A 
ATOM     13  C5   11 d          -4.462 208.579 113.326  0.00  0.00     0.003 A 
ATOM     14  C6   11 d          -4.394 207.454 114.157  0.00  0.00     0.001 A 
ATOM     15  C7   11 d          -5.191 207.385 115.308  0.00  0.00     0.016 A 
BRANCH  11  16
ATOM     16  O1   11 d          -6.909 210.713 115.118  0.00  0.00    -0.360 OA
ATOM     17  H5   11 d          -6.300 211.366 115.639  0.00  0.00     0.217 HD
ENDBRANCH  11  16
ENDBRANCH   8  10
ENDBRANCH   1   7
BRANCH   4  18
ATOM     18  C9   11 d         -12.454 207.801 114.520  0.00  0.00     0.036 A 
ATOM     19  C10  11 d         -12.699 206.516 114.007  0.00  0.00     0.029 A 
ATOM     20  C11  11 d         -14.014 206.040 113.892  0.00  0.00     0.002 A 
ATOM     21  C12  11 d         -15.090 206.848 114.291  0.00  0.00     0.000 A 
ATOM     22  C13  11 d         -14.850 208.134 114.800  0.00  0.00     0.002 A 
ATOM     23  C14  11 d         -13.534 208.611 114.914  0.00  0.00     0.029 A 
ENDBRANCH   4  18
TORSDOF 4
ENDMDL
MODEL 20
REMARK VINA RESULT:      -6.6      2.550      3.865
REMARK  4 active torsions:
REMARK  status: ('A' for Active; 'I' for Inactive)
REMARK    1  A    between atoms: C1_1  and  C2_2 
REMARK    2  A    between atoms: C3_3  and  O1_8 
REMARK    3  A    between atoms: N1_9  and  N2_10 
REMARK       I    between atoms: N2_10  and  C8_11 
REMARK       I    between atoms: C8_11  and  N3_13 
REMARK    4  A    between atoms: N3_13  and  C9_14 
ROOT
ATOM      1  N2   11 d         -13.904 207.057 113.927  0.00  0.00    -0.228 N 
ATOM      2  C8   11 d         -12.808 206.952 114.826  0.00  0.00     0.341 C 
ATOM      3  O2   11 d         -12.246 205.821 115.050  0.00  0.00    -0.245 OA
ATOM      4  N3   11 d         -12.350 208.132 115.473  0.00  0.00    -0.308 N 
ATOM      5  H6   11 d         -14.367 208.008 113.748  0.00  0.00     0.194 HD
ATOM      6  H7   11 d         -12.832 209.070 115.274  0.00  0.00     0.170 HD
ENDROOT
BRANCH   1   7
ATOM      7  N1   11 d         -14.429 205.962 113.230  0.00  0.00    -0.175 NA
ATOM      8  C1   11 d         -14.120 205.729 111.970  0.00  0.00     0.064 C 
ATOM      9  C15  11 d         -14.780 204.520 111.361  0.00  0.00     0.073 C 
BRANCH   8  10
ATOM     10  C2   11 d         -13.105 206.476 111.155  0.00  0.00     0.023 A 
ATOM     11  C3   11 d         -13.415 207.164 109.952  0.00  0.00     0.077 A 
ATOM     12  C4   11 d         -12.402 207.834 109.244  0.00  0.00     0.037 A 
ATOM     13  C5   11 d         -11.096 207.887 109.748  0.00  0.00     0.003 A 
ATOM     14  C6   11 d         -10.790 207.251 110.957  0.00  0.00     0.001 A 
ATOM     15  C7   11 d         -11.783 206.548 111.650  0.00  0.00     0.016 A 
BRANCH  11  16
ATOM     16  O1   11 d         -14.718 207.169 109.400  0.00  0.00    -0.360 OA
ATOM     17  H5   11 d         -14.616 206.741 108.464  0.00  0.00     0.217 HD
ENDBRANCH  11  16
ENDBRANCH   8  10
ENDBRANCH   1   7
BRANCH   4  18
ATOM     18  C9   11 d         -11.229 208.124 116.406  0.00  0.00     0.036 A 
ATOM     19  C10  11 d         -11.459 207.775 117.748  0.00  0.00     0.029 A 
ATOM     20  C11  11 d         -10.392 207.728 118.658  0.00  0.00     0.002 A 
ATOM     21  C12  11 d          -9.090 208.032 118.229  0.00  0.00     0.000 A 
ATOM     22  C13  11 d          -8.857 208.385 116.890  0.00  0.00     0.002 A 
ATOM     23  C14  11 d          -9.925 208.433 115.980  0.00  0.00     0.029 A 
ENDBRANCH   4  18
TORSDOF 4
ENDMDL
