MODEL 1
REMARK VINA RESULT:      -8.2      0.000      0.000
REMARK  2 active torsions:
REMARK  status: ('A' for Active; 'I' for Inactive)
REMARK       I    between atoms: C1_1  and  N3_6 
REMARK    1  A    between atoms: N3_6  and  C4_7 
REMARK    2  A    between atoms: C4_7  and  C5_8 
ROOT
ATOM      1  C5   11 d         -13.784 206.977 112.651  0.00  0.00    -0.023 C 
ATOM      2  C6   11 d         -15.117 207.777 112.494  0.00  0.00     0.015 C 
ATOM      3  C7   11 d         -16.063 207.080 111.487  0.00  0.00    -0.013 C 
ATOM      4  C8   11 d         -16.391 205.657 111.994  0.00  0.00     0.009 C 
ATOM      5  C9   11 d         -15.084 204.842 112.130  0.00  0.00    -0.013 C 
ATOM      6  C10  11 d         -14.145 205.541 113.142  0.00  0.00     0.015 C 
ATOM      7  C11  11 d         -14.385 204.755 110.753  0.00  0.00     0.009 C 
ATOM      8  C12  11 d         -14.060 206.177 110.241  0.00  0.00    -0.013 C 
ATOM      9  C13  11 d         -13.115 206.882 111.245  0.00  0.00     0.015 C 
ATOM     10  C14  11 d         -15.369 206.990 110.109  0.00  0.00     0.009 C 
ENDROOT
BRANCH   1  11
ATOM     11  C4   11 d         -12.873 207.717 113.670  0.00  0.00     0.147 C 
BRANCH  11  12
ATOM     12  N3   11 d         -13.521 208.208 114.836  0.00  0.00    -0.224 N 
ATOM     13  C1   11 d         -13.261 207.711 116.102  0.00  0.00     0.691 A 
ATOM     14  N1   11 d         -12.416 206.750 116.341  0.00  0.00    -0.106 NA
ATOM     15  N2   11 d         -13.867 208.183 117.226  0.00  0.00    -0.223 N 
ATOM     16  C2   11 d         -12.424 206.517 117.788  0.00  0.00     0.189 A 
ATOM     17  C3   11 d         -13.427 207.516 118.367  0.00  0.00     0.160 A 
ATOM     18  H5   11 d         -14.544 208.916 117.239  0.00  0.00     0.177 HD
ATOM     19  H6   11 d         -14.190 208.939 114.756  0.00  0.00     0.177 HD
ENDBRANCH  11  12
ENDBRANCH   1  11
TORSDOF 2
ENDMDL
MODEL 2
REMARK VINA RESULT:      -8.2      0.055      1.847
REMARK  2 active torsions:
REMARK  status: ('A' for Active; 'I' for Inactive)
REMARK       I    between atoms: C1_1  and  N3_6 
REMARK    1  A    between atoms: N3_6  and  C4_7 
REMARK    2  A    between atoms: C4_7  and  C5_8 
ROOT
ATOM      1  C5   11 d         -13.847 206.967 112.677  0.00  0.00    -0.023 C 
ATOM      2  C6   11 d         -13.131 206.861 111.293  0.00  0.00     0.015 C 
ATOM      3  C7   11 d         -14.042 206.166 110.253  0.00  0.00    -0.013 C 
ATOM      4  C8   11 d         -15.343 206.985 110.082  0.00  0.00     0.009 C 
ATOM      5  C9   11 d         -16.078 207.077 111.439  0.00  0.00    -0.013 C 
ATOM      6  C10  11 d         -15.164 207.777 112.473  0.00  0.00     0.015 C 
ATOM      7  C11  11 d         -16.422 205.653 111.936  0.00  0.00     0.009 C 
ATOM      8  C12  11 d         -15.123 204.830 112.104  0.00  0.00    -0.013 C 
ATOM      9  C13  11 d         -14.205 205.521 113.141  0.00  0.00     0.015 C 
ATOM     10  C14  11 d         -14.389 204.742 110.745  0.00  0.00     0.009 C 
ENDROOT
BRANCH   1  11
ATOM     11  C4   11 d         -12.893 207.670 113.683  0.00  0.00     0.147 C 
BRANCH  11  12
ATOM     12  N3   11 d         -13.507 208.194 114.853  0.00  0.00    -0.224 N 
ATOM     13  C1   11 d         -13.267 207.682 116.117  0.00  0.00     0.691 A 
ATOM     14  N1   11 d         -12.475 206.676 116.350  0.00  0.00    -0.106 NA
ATOM     15  N2   11 d         -13.841 208.185 117.245  0.00  0.00    -0.223 N 
ATOM     16  C2   11 d         -12.488 206.441 117.796  0.00  0.00     0.189 A 
ATOM     17  C3   11 d         -13.432 207.492 118.383  0.00  0.00     0.160 A 
ATOM     18  H5   11 d         -14.476 208.953 117.263  0.00  0.00     0.177 HD
ATOM     19  H6   11 d         -14.136 208.961 114.778  0.00  0.00     0.177 HD
ENDBRANCH  11  12
ENDBRANCH   1  11
TORSDOF 2
ENDMDL
MODEL 3
REMARK VINA RESULT:      -7.7      1.880      2.212
REMARK  2 active torsions:
REMARK  status: ('A' for Active; 'I' for Inactive)
REMARK       I    between atoms: C1_1  and  N3_6 
REMARK    1  A    between atoms: N3_6  and  C4_7 
REMARK    2  A    between atoms: C4_7  and  C5_8 
ROOT
ATOM      1  C5   11 d         -13.954 206.778 112.844  0.00  0.00    -0.023 C 
ATOM      2  C6   11 d         -15.080 207.775 112.426  0.00  0.00     0.015 C 
ATOM      3  C7   11 d         -15.900 207.216 111.239  0.00  0.00    -0.013 C 
ATOM      4  C8   11 d         -16.548 205.874 111.651  0.00  0.00     0.009 C 
ATOM      5  C9   11 d         -15.444 204.865 112.043  0.00  0.00    -0.013 C 
ATOM      6  C10  11 d         -14.632 205.428 113.234  0.00  0.00     0.015 C 
ATOM      7  C11  11 d         -14.501 204.638 110.837  0.00  0.00     0.009 C 
ATOM      8  C12  11 d         -13.855 205.980 110.420  0.00  0.00    -0.013 C 
ATOM      9  C13  11 d         -13.036 206.548 111.604  0.00  0.00     0.015 C 
ATOM     10  C14  11 d         -14.962 206.987 110.031  0.00  0.00     0.009 C 
ENDROOT
BRANCH   1  11
ATOM     11  C4   11 d         -13.163 207.385 114.037  0.00  0.00     0.147 C 
BRANCH  11  12
ATOM     12  N3   11 d         -11.862 207.871 113.731  0.00  0.00    -0.224 N 
ATOM     13  C1   11 d         -10.909 208.118 114.704  0.00  0.00     0.691 A 
ATOM     14  N1   11 d         -11.114 207.942 115.978  0.00  0.00    -0.106 NA
ATOM     15  N2   11 d          -9.656 208.571 114.421  0.00  0.00    -0.223 N 
ATOM     16  C2   11 d          -9.876 208.310 116.671  0.00  0.00     0.189 A 
ATOM     17  C3   11 d          -8.895 208.735 115.577  0.00  0.00     0.160 A 
ATOM     18  H5   11 d          -9.318 208.765 113.504  0.00  0.00     0.177 HD
ATOM     19  H6   11 d         -11.610 208.043 112.785  0.00  0.00     0.177 HD
ENDBRANCH  11  12
ENDBRANCH   1  11
TORSDOF 2
ENDMDL
MODEL 4
REMARK VINA RESULT:      -7.7      1.433      1.969
REMARK  2 active torsions:
REMARK  status: ('A' for Active; 'I' for Inactive)
REMARK       I    between atoms: C1_1  and  N3_6 
REMARK    1  A    between atoms: N3_6  and  C4_7 
REMARK    2  A    between atoms: C4_7  and  C5_8 
ROOT
ATOM      1  C5   11 d         -14.604 206.914 113.285  0.00  0.00    -0.023 C 
ATOM      2  C6   11 d         -15.828 205.945 113.303  0.00  0.00     0.015 C 
ATOM      3  C7   11 d         -16.103 205.378 111.889  0.00  0.00    -0.013 C 
ATOM      4  C8   11 d         -14.859 204.602 111.397  0.00  0.00     0.009 C 
ATOM      5  C9   11 d         -13.642 205.555 111.349  0.00  0.00    -0.013 C 
ATOM      6  C10  11 d         -13.369 206.114 112.766  0.00  0.00     0.015 C 
ATOM      7  C11  11 d         -13.941 206.724 110.382  0.00  0.00     0.009 C 
ATOM      8  C12  11 d         -15.187 207.499 110.869  0.00  0.00    -0.013 C 
ATOM      9  C13  11 d         -14.921 208.067 112.284  0.00  0.00     0.015 C 
ATOM     10  C14  11 d         -16.402 206.543 110.918  0.00  0.00     0.009 C 
ENDROOT
BRANCH   1  11
ATOM     11  C4   11 d         -14.370 207.454 114.724  0.00  0.00     0.147 C 
BRANCH  11  12
ATOM     12  N3   11 d         -13.307 208.385 114.869  0.00  0.00    -0.224 N 
ATOM     13  C1   11 d         -12.193 208.133 115.651  0.00  0.00     0.691 A 
ATOM     14  N1   11 d         -12.021 207.036 116.331  0.00  0.00    -0.106 NA
ATOM     15  N2   11 d         -11.162 209.014 115.787  0.00  0.00    -0.223 N 
ATOM     16  C2   11 d         -10.733 207.151 117.020  0.00  0.00     0.189 A 
ATOM     17  C3   11 d         -10.168 208.516 116.626  0.00  0.00     0.160 A 
ATOM     18  H5   11 d         -11.119 209.906 115.344  0.00  0.00     0.177 HD
ATOM     19  H6   11 d         -13.348 209.258 114.394  0.00  0.00     0.177 HD
ENDBRANCH  11  12
ENDBRANCH   1  11
TORSDOF 2
ENDMDL
MODEL 5
REMARK VINA RESULT:      -7.5      1.253      2.074
REMARK  2 active torsions:
REMARK  status: ('A' for Active; 'I' for Inactive)
REMARK       I    between atoms: C1_1  and  N3_6 
REMARK    1  A    between atoms: N3_6  and  C4_7 
REMARK    2  A    between atoms: C4_7  and  C5_8 
ROOT
ATOM      1  C5   11 d         -14.068 206.625 113.144  0.00  0.00    -0.023 C 
ATOM      2  C6   11 d         -15.063 205.424 113.218  0.00  0.00     0.015 C 
ATOM      3  C7   11 d         -15.620 205.081 111.816  0.00  0.00    -0.013 C 
ATOM      4  C8   11 d         -14.450 204.704 110.878  0.00  0.00     0.009 C 
ATOM      5  C9   11 d         -13.468 205.893 110.772  0.00  0.00    -0.013 C 
ATOM      6  C10  11 d         -12.910 206.227 112.176  0.00  0.00     0.015 C 
ATOM      7  C11  11 d         -14.210 207.126 110.205  0.00  0.00     0.009 C 
ATOM      8  C12  11 d         -15.384 207.503 111.139  0.00  0.00    -0.013 C 
ATOM      9  C13  11 d         -14.835 207.845 112.545  0.00  0.00     0.015 C 
ATOM     10  C14  11 d         -16.363 206.311 111.245  0.00  0.00     0.009 C 
ENDROOT
BRANCH   1  11
ATOM     11  C4   11 d         -13.539 206.928 114.573  0.00  0.00     0.147 C 
BRANCH  11  12
ATOM     12  N3   11 d         -13.873 205.971 115.571  0.00  0.00    -0.224 N 
ATOM     13  C1   11 d         -13.886 206.273 116.922  0.00  0.00     0.691 A 
ATOM     14  N1   11 d         -13.584 207.444 117.403  0.00  0.00    -0.106 NA
ATOM     15  N2   11 d         -14.216 205.368 117.884  0.00  0.00    -0.223 N 
ATOM     16  C2   11 d         -13.715 207.361 118.860  0.00  0.00     0.189 A 
ATOM     17  C3   11 d         -14.152 205.926 119.159  0.00  0.00     0.160 A 
ATOM     18  H5   11 d         -14.474 204.421 117.706  0.00  0.00     0.177 HD
ATOM     19  H6   11 d         -14.112 205.044 115.303  0.00  0.00     0.177 HD
ENDBRANCH  11  12
ENDBRANCH   1  11
TORSDOF 2
ENDMDL
MODEL 6
REMARK VINA RESULT:      -6.8      2.448      3.772
REMARK  2 active torsions:
REMARK  status: ('A' for Active; 'I' for Inactive)
REMARK       I    between atoms: C1_1  and  N3_6 
REMARK    1  A    between atoms: N3_6  and  C4_7 
REMARK    2  A    between atoms: C4_7  and  C5_8 
ROOT
ATOM      1  C5   11 d         -12.980 206.076 115.947  0.00  0.00    -0.023 C 
ATOM      2  C6   11 d         -13.159 207.622 116.067  0.00  0.00     0.015 C 
ATOM      3  C7   11 d         -13.593 208.234 114.714  0.00  0.00    -0.013 C 
ATOM      4  C8   11 d         -14.937 207.608 114.275  0.00  0.00     0.009 C 
ATOM      5  C9   11 d         -14.770 206.079 114.125  0.00  0.00    -0.013 C 
ATOM      6  C10  11 d         -14.342 205.472 115.483  0.00  0.00     0.015 C 
ATOM      7  C11  11 d         -13.687 205.780 113.062  0.00  0.00     0.009 C 
ATOM      8  C12  11 d         -12.343 206.409 113.496  0.00  0.00    -0.013 C 
ATOM      9  C13  11 d         -11.903 205.803 114.851  0.00  0.00     0.015 C 
ATOM     10  C14  11 d         -12.514 207.938 113.648  0.00  0.00     0.009 C 
ENDROOT
BRANCH   1  11
ATOM     11  C4   11 d         -12.546 205.512 117.328  0.00  0.00     0.147 C 
BRANCH  11  12
ATOM     12  N3   11 d         -13.570 204.882 118.087  0.00  0.00    -0.224 N 
ATOM     13  C1   11 d         -14.236 205.522 119.120  0.00  0.00     0.691 A 
ATOM     14  N1   11 d         -13.982 206.741 119.497  0.00  0.00    -0.106 NA
ATOM     15  N2   11 d         -15.227 204.932 119.845  0.00  0.00    -0.223 N 
ATOM     16  C2   11 d         -14.889 207.049 120.606  0.00  0.00     0.189 A 
ATOM     17  C3   11 d         -15.730 205.790 120.820  0.00  0.00     0.160 A 
ATOM     18  H5   11 d         -15.556 204.002 119.702  0.00  0.00     0.177 HD
ATOM     19  H6   11 d         -13.833 203.946 117.880  0.00  0.00     0.177 HD
ENDBRANCH  11  12
ENDBRANCH   1  11
TORSDOF 2
ENDMDL
MODEL 7
REMARK VINA RESULT:      -6.7      3.123      4.667
REMARK  2 active torsions:
REMARK  status: ('A' for Active; 'I' for Inactive)
REMARK       I    between atoms: C1_1  and  N3_6 
REMARK    1  A    between atoms: N3_6  and  C4_7 
REMARK    2  A    between atoms: C4_7  and  C5_8 
ROOT
ATOM      1  C5   11 d         -13.221 205.787 115.946  0.00  0.00    -0.023 C 
ATOM      2  C6   11 d         -11.981 205.747 114.997  0.00  0.00     0.015 C 
ATOM      3  C7   11 d         -12.157 206.734 113.818  0.00  0.00    -0.013 C 
ATOM      4  C8   11 d         -12.318 208.169 114.370  0.00  0.00     0.009 C 
ATOM      5  C9   11 d         -13.558 208.232 115.292  0.00  0.00    -0.013 C 
ATOM      6  C10  11 d         -13.373 207.248 116.472  0.00  0.00     0.015 C 
ATOM      7  C11  11 d         -14.820 207.841 114.487  0.00  0.00     0.009 C 
ATOM      8  C12  11 d         -14.659 206.408 113.929  0.00  0.00    -0.013 C 
ATOM      9  C13  11 d         -14.480 205.415 115.103  0.00  0.00     0.015 C 
ATOM     10  C14  11 d         -13.417 206.347 113.010  0.00  0.00     0.009 C 
ENDROOT
BRANCH   1  11
ATOM     11  C4   11 d         -12.994 204.782 117.110  0.00  0.00     0.147 C 
BRANCH  11  12
ATOM     12  N3   11 d         -13.904 204.882 118.198  0.00  0.00    -0.224 N 
ATOM     13  C1   11 d         -14.915 203.962 118.414  0.00  0.00     0.691 A 
ATOM     14  N1   11 d         -15.135 202.936 117.644  0.00  0.00    -0.106 NA
ATOM     15  N2   11 d         -15.784 204.042 119.460  0.00  0.00    -0.223 N 
ATOM     16  C2   11 d         -16.280 202.212 118.203  0.00  0.00     0.189 A 
ATOM     17  C3   11 d         -16.701 202.993 119.449  0.00  0.00     0.160 A 
ATOM     18  H5   11 d         -15.772 204.759 120.153  0.00  0.00     0.177 HD
ATOM     19  H6   11 d         -13.822 205.637 118.840  0.00  0.00     0.177 HD
ENDBRANCH  11  12
ENDBRANCH   1  11
TORSDOF 2
ENDMDL
MODEL 8
REMARK VINA RESULT:      -6.6      2.450      4.139
REMARK  2 active torsions:
REMARK  status: ('A' for Active; 'I' for Inactive)
REMARK       I    between atoms: C1_1  and  N3_6 
REMARK    1  A    between atoms: N3_6  and  C4_7 
REMARK    2  A    between atoms: C4_7  and  C5_8 
ROOT
ATOM      1  C5   11 d         -12.887 206.427 115.985  0.00  0.00    -0.023 C 
ATOM      2  C6   11 d         -11.963 205.933 114.827  0.00  0.00     0.015 C 
ATOM      3  C7   11 d         -12.583 206.262 113.448  0.00  0.00    -0.013 C 
ATOM      4  C8   11 d         -12.768 207.792 113.321  0.00  0.00     0.009 C 
ATOM      5  C9   11 d         -13.703 208.294 114.445  0.00  0.00    -0.013 C 
ATOM      6  C10  11 d         -13.075 207.967 115.821  0.00  0.00     0.015 C 
ATOM      7  C11  11 d         -15.077 207.593 114.326  0.00  0.00     0.009 C 
ATOM      8  C12  11 d         -14.894 206.062 114.448  0.00  0.00    -0.013 C 
ATOM      9  C13  11 d         -14.271 205.725 115.824  0.00  0.00     0.015 C 
ATOM     10  C14  11 d         -13.957 205.563 113.324  0.00  0.00     0.009 C 
ENDROOT
BRANCH   1  11
ATOM     11  C4   11 d         -12.221 206.074 117.344  0.00  0.00     0.147 C 
BRANCH  11  12
ATOM     12  N3   11 d         -12.937 205.159 118.163  0.00  0.00    -0.224 N 
ATOM     13  C1   11 d         -13.771 205.568 119.189  0.00  0.00     0.691 A 
ATOM     14  N1   11 d         -13.968 206.815 119.507  0.00  0.00    -0.106 NA
ATOM     15  N2   11 d         -14.471 204.700 119.972  0.00  0.00    -0.223 N 
ATOM     16  C2   11 d         -14.906 206.833 120.632  0.00  0.00     0.189 A 
ATOM     17  C3   11 d         -15.234 205.368 120.927  0.00  0.00     0.160 A 
ATOM     18  H5   11 d         -14.445 203.708 119.879  0.00  0.00     0.177 HD
ATOM     19  H6   11 d         -12.848 204.181 118.004  0.00  0.00     0.177 HD
ENDBRANCH  11  12
ENDBRANCH   1  11
TORSDOF 2
ENDMDL
MODEL 9
REMARK VINA RESULT:      -6.4      2.596      3.854
REMARK  2 active torsions:
REMARK  status: ('A' for Active; 'I' for Inactive)
REMARK       I    between atoms: C1_1  and  N3_6 
REMARK    1  A    between atoms: N3_6  and  C4_7 
REMARK    2  A    between atoms: C4_7  and  C5_8 
ROOT
ATOM      1  C5   11 d         -12.692 206.769 115.721  0.00  0.00    -0.023 C 
ATOM      2  C6   11 d         -12.917 208.246 115.266  0.00  0.00     0.015 C 
ATOM      3  C7   11 d         -13.762 208.301 113.970  0.00  0.00    -0.013 C 
ATOM      4  C8   11 d         -15.137 207.643 114.227  0.00  0.00     0.009 C 
ATOM      5  C9   11 d         -14.934 206.171 114.654  0.00  0.00    -0.013 C 
ATOM      6  C10  11 d         -14.093 206.123 115.952  0.00  0.00     0.015 C 
ATOM      7  C11  11 d         -14.194 205.406 113.531  0.00  0.00     0.009 C 
ATOM      8  C12  11 d         -12.820 206.065 113.269  0.00  0.00    -0.013 C 
ATOM      9  C13  11 d         -11.969 206.016 114.562  0.00  0.00     0.015 C 
ATOM     10  C14  11 d         -13.026 207.538 112.845  0.00  0.00     0.009 C 
ENDROOT
BRANCH   1  11
ATOM     11  C4   11 d         -11.842 206.769 117.022  0.00  0.00     0.147 C 
BRANCH  11  12
ATOM     12  N3   11 d         -10.437 206.888 116.840  0.00  0.00    -0.224 N 
ATOM     13  C1   11 d          -9.613 207.510 117.764  0.00  0.00     0.691 A 
ATOM     14  N1   11 d         -10.044 208.049 118.867  0.00  0.00    -0.106 NA
ATOM     15  N2   11 d          -8.265 207.618 117.605  0.00  0.00    -0.223 N 
ATOM     16  C2   11 d          -8.878 208.597 119.565  0.00  0.00     0.189 A 
ATOM     17  C3   11 d          -7.673 208.284 118.676  0.00  0.00     0.160 A 
ATOM     18  H5   11 d          -7.757 207.267 116.823  0.00  0.00     0.177 HD
ATOM     19  H6   11 d         -10.012 206.513 116.023  0.00  0.00     0.177 HD
ENDBRANCH  11  12
ENDBRANCH   1  11
TORSDOF 2
ENDMDL
MODEL 10
REMARK VINA RESULT:      -6.1      6.165      8.857
REMARK  2 active torsions:
REMARK  status: ('A' for Active; 'I' for Inactive)
REMARK       I    between atoms: C1_1  and  N3_6 
REMARK    1  A    between atoms: N3_6  and  C4_7 
REMARK    2  A    between atoms: C4_7  and  C5_8 
ROOT
ATOM      1  C5   11 d          -7.306 209.310 114.602  0.00  0.00    -0.023 C 
ATOM      2  C6   11 d          -6.492 210.619 114.851  0.00  0.00     0.015 C 
ATOM      3  C7   11 d          -5.111 210.300 115.471  0.00  0.00    -0.013 C 
ATOM      4  C8   11 d          -4.314 209.392 114.506  0.00  0.00     0.009 C 
ATOM      5  C9   11 d          -5.094 208.078 114.270  0.00  0.00    -0.013 C 
ATOM      6  C10  11 d          -6.472 208.404 113.645  0.00  0.00     0.015 C 
ATOM      7  C11  11 d          -5.299 207.350 115.619  0.00  0.00     0.009 C 
ATOM      8  C12  11 d          -6.092 208.258 116.587  0.00  0.00    -0.013 C 
ATOM      9  C13  11 d          -7.475 208.584 115.973  0.00  0.00     0.015 C 
ATOM     10  C14  11 d          -5.310 209.572 116.820  0.00  0.00     0.009 C 
ENDROOT
BRANCH   1  11
ATOM     11  C4   11 d          -8.681 209.684 113.980  0.00  0.00     0.147 C 
BRANCH  11  12
ATOM     12  N3   11 d          -8.788 209.516 112.573  0.00  0.00    -0.224 N 
ATOM     13  C1   11 d          -9.743 208.703 111.987  0.00  0.00     0.691 A 
ATOM     14  N1   11 d         -10.617 208.013 112.663  0.00  0.00    -0.106 NA
ATOM     15  N2   11 d          -9.863 208.544 110.640  0.00  0.00    -0.223 N 
ATOM     16  C2   11 d         -11.442 207.290 111.692  0.00  0.00     0.189 A 
ATOM     17  C3   11 d         -10.902 207.676 110.314  0.00  0.00     0.160 A 
ATOM     18  H5   11 d          -9.281 208.991 109.964  0.00  0.00     0.177 HD
ATOM     19  H6   11 d          -8.160 209.997 111.970  0.00  0.00     0.177 HD
ENDBRANCH  11  12
ENDBRANCH   1  11
TORSDOF 2
ENDMDL
