MODEL 1
REMARK VINA RESULT:      -8.3      0.000      0.000
REMARK  2 active torsions:
REMARK  status: ('A' for Active; 'I' for Inactive)
REMARK    1  A    between atoms: C6_6  and  O1_7 
REMARK    2  A    between atoms: C16_17  and  N1_18 
REMARK       I    between atoms: N2_23  and  C19_24 
ROOT
ATOM      1  C1   11 d          -9.132 208.755 114.665  0.00  0.00     0.072 C 
ATOM      2  C2   11 d         -10.196 208.063 113.894  0.00  0.00    -0.000 A 
ATOM      3  C3   11 d         -10.335 208.348 112.510  0.00  0.00    -0.046 A 
ATOM      4  C4   11 d         -11.288 207.639 111.754  0.00  0.00     0.011 A 
ATOM      5  C5   11 d         -12.126 206.697 112.369  0.00  0.00     0.037 A 
ATOM      6  C6   11 d         -11.988 206.415 113.735  0.00  0.00     0.069 A 
ATOM      7  C8   11 d         -11.044 207.116 114.501  0.00  0.00     0.050 A 
ATOM      8  C9   11 d          -9.379 209.293 111.803  0.00  0.00     0.040 C 
ATOM      9  C10  11 d          -8.034 209.452 112.535  0.00  0.00     0.018 C 
ATOM     10  C11  11 d          -8.268 209.793 114.019  0.00  0.00     0.070 C 
ATOM     11  C12  11 d          -7.080 209.865 114.990  0.00  0.00     0.156 C 
ATOM     12  C13  11 d          -5.797 209.255 114.449  0.00  0.00    -0.032 A 
ATOM     13  C14  11 d          -5.488 207.891 114.627  0.00  0.00     0.012 A 
ATOM     14  C15  11 d          -4.266 207.369 114.177  0.00  0.00     0.037 A 
ATOM     15  C16  11 d          -3.306 208.199 113.550  0.00  0.00     0.102 A 
ATOM     16  C17  11 d          -3.607 209.574 113.413  0.00  0.00     0.037 A 
ATOM     17  C18  11 d          -4.826 210.095 113.869  0.00  0.00     0.012 A 
ATOM     18  N2   11 d          -7.624 209.123 116.163  0.00  0.00    -0.228 N 
ATOM     19  C19  11 d          -7.018 209.074 117.451  0.00  0.00     0.236 C 
ATOM     20  O4   11 d          -5.934 209.724 117.666  0.00  0.00    -0.272 OA
ATOM     21  C20  11 d          -7.651 208.318 118.579  0.00  0.00     0.119 C 
ATOM     22  N3   11 d          -8.811 208.450 115.888  0.00  0.00    -0.172 NA
ENDROOT
BRANCH  15  23
ATOM     23  N1   11 d          -2.091 207.685 113.089  0.00  0.00    -0.116 N 
ATOM     24  O2   11 d          -1.740 207.896 112.019  0.00  0.00    -0.532 OA
ATOM     25  O3   11 d          -1.270 207.158 113.890  0.00  0.00    -0.532 OA
ENDBRANCH  15  23
BRANCH   6  26
ATOM     26  O1   11 d         -12.886 205.513 114.366  0.00  0.00    -0.356 OA
ATOM     27  C7   11 d         -14.243 205.821 113.956  0.00  0.00     0.210 C 
ENDBRANCH   6  26
TORSDOF 2
ENDMDL
MODEL 2
REMARK VINA RESULT:      -7.7      2.199      2.957
REMARK  2 active torsions:
REMARK  status: ('A' for Active; 'I' for Inactive)
REMARK    1  A    between atoms: C6_6  and  O1_7 
REMARK    2  A    between atoms: C16_17  and  N1_18 
REMARK       I    between atoms: N2_23  and  C19_24 
ROOT
ATOM      1  C1   11 d          -6.846 209.382 114.979  0.00  0.00     0.072 C 
ATOM      2  C2   11 d          -8.112 208.977 114.316  0.00  0.00    -0.000 A 
ATOM      3  C3   11 d          -8.073 208.576 112.954  0.00  0.00    -0.046 A 
ATOM      4  C4   11 d          -9.253 208.114 112.339  0.00  0.00     0.011 A 
ATOM      5  C5   11 d         -10.464 208.099 113.047  0.00  0.00     0.037 A 
ATOM      6  C6   11 d         -10.502 208.494 114.391  0.00  0.00     0.069 A 
ATOM      7  C8   11 d          -9.334 208.958 115.016  0.00  0.00     0.050 A 
ATOM      8  C9   11 d          -6.759 208.495 112.196  0.00  0.00     0.040 C 
ATOM      9  C10  11 d          -5.536 208.357 113.119  0.00  0.00     0.018 C 
ATOM     10  C11  11 d          -5.563 209.443 114.212  0.00  0.00     0.070 C 
ATOM     11  C12  11 d          -4.520 209.428 115.339  0.00  0.00     0.156 C 
ATOM     12  C13  11 d          -3.746 208.124 115.454  0.00  0.00    -0.032 A 
ATOM     13  C14  11 d          -4.202 207.056 116.254  0.00  0.00     0.012 A 
ATOM     14  C15  11 d          -3.435 205.890 116.396  0.00  0.00     0.037 A 
ATOM     15  C16  11 d          -2.179 205.762 115.757  0.00  0.00     0.102 A 
ATOM     16  C17  11 d          -1.711 206.853 114.990  0.00  0.00     0.037 A 
ATOM     17  C18  11 d          -2.476 208.021 114.854  0.00  0.00     0.012 A 
ATOM     18  N2   11 d          -5.378 209.699 116.527  0.00  0.00    -0.228 N 
ATOM     19  C19  11 d          -4.894 210.015 117.829  0.00  0.00     0.236 C 
ATOM     20  O4   11 d          -3.632 210.108 118.030  0.00  0.00    -0.272 OA
ATOM     21  C20  11 d          -5.836 210.295 118.961  0.00  0.00     0.119 C 
ATOM     22  N3   11 d          -6.740 209.606 116.256  0.00  0.00    -0.172 NA
ENDROOT
BRANCH  15  23
ATOM     23  N1   11 d          -1.414 204.600 115.884  0.00  0.00    -0.116 N 
ATOM     24  O2   11 d          -0.359 204.547 115.440  0.00  0.00    -0.532 OA
ATOM     25  O3   11 d          -1.781 203.668 116.654  0.00  0.00    -0.532 OA
ENDBRANCH  15  23
BRANCH   6  26
ATOM     26  O1   11 d         -11.743 208.542 115.080  0.00  0.00    -0.356 OA
ATOM     27  C7   11 d         -12.803 208.103 114.193  0.00  0.00     0.210 C 
ENDBRANCH   6  26
TORSDOF 2
ENDMDL
MODEL 3
REMARK VINA RESULT:      -7.0     15.368     18.374
REMARK  2 active torsions:
REMARK  status: ('A' for Active; 'I' for Inactive)
REMARK    1  A    between atoms: C6_6  and  O1_7 
REMARK    2  A    between atoms: C16_17  and  N1_18 
REMARK       I    between atoms: N2_23  and  C19_24 
ROOT
ATOM      1  C1   11 d         -21.874 202.135 124.201  0.00  0.00     0.072 C 
ATOM      2  C2   11 d         -23.226 201.869 124.756  0.00  0.00    -0.000 A 
ATOM      3  C3   11 d         -23.362 201.648 126.151  0.00  0.00    -0.046 A 
ATOM      4  C4   11 d         -24.649 201.473 126.697  0.00  0.00     0.011 A 
ATOM      5  C5   11 d         -25.779 201.466 125.866  0.00  0.00     0.037 A 
ATOM      6  C6   11 d         -25.644 201.685 124.488  0.00  0.00     0.069 A 
ATOM      7  C8   11 d         -24.368 201.858 123.930  0.00  0.00     0.050 A 
ATOM      8  C9   11 d         -22.167 201.743 127.082  0.00  0.00     0.040 C 
ATOM      9  C10  11 d         -21.013 202.579 126.501  0.00  0.00     0.018 C 
ATOM     10  C11  11 d         -20.663 202.096 125.080  0.00  0.00     0.070 C 
ATOM     11  C12  11 d         -19.635 202.864 124.236  0.00  0.00     0.156 C 
ATOM     12  C13  11 d         -19.298 204.247 124.772  0.00  0.00    -0.032 A 
ATOM     13  C14  11 d         -20.032 205.390 124.395  0.00  0.00     0.012 A 
ATOM     14  C15  11 d         -19.658 206.663 124.851  0.00  0.00     0.037 A 
ATOM     15  C16  11 d         -18.528 206.835 125.684  0.00  0.00     0.102 A 
ATOM     16  C17  11 d         -17.774 205.689 126.024  0.00  0.00     0.037 A 
ATOM     17  C18  11 d         -18.145 204.417 125.562  0.00  0.00     0.012 A 
ATOM     18  N2   11 d         -20.324 202.907 122.915  0.00  0.00    -0.228 N 
ATOM     19  C19  11 d         -19.719 203.315 121.691  0.00  0.00     0.236 C 
ATOM     20  O4   11 d         -18.483 203.654 121.678  0.00  0.00    -0.272 OA
ATOM     21  C20  11 d         -20.487 203.304 120.404  0.00  0.00     0.119 C 
ATOM     22  N3   11 d         -21.657 202.511 122.975  0.00  0.00    -0.172 NA
ENDROOT
BRANCH  15  23
ATOM     23  N1   11 d         -18.155 208.098 126.151  0.00  0.00    -0.116 N 
ATOM     24  O2   11 d         -18.144 209.000 125.444  0.00  0.00    -0.532 OA
ATOM     25  O3   11 d         -18.020 208.313 127.388  0.00  0.00    -0.532 OA
ENDBRANCH  15  23
BRANCH   6  26
ATOM     26  O1   11 d         -26.784 201.607 123.644  0.00  0.00    -0.356 OA
ATOM     27  C7   11 d         -27.745 200.684 124.218  0.00  0.00     0.210 C 
ENDBRANCH   6  26
TORSDOF 2
ENDMDL
MODEL 4
REMARK VINA RESULT:      -7.0      2.753      3.654
REMARK  2 active torsions:
REMARK  status: ('A' for Active; 'I' for Inactive)
REMARK    1  A    between atoms: C6_6  and  O1_7 
REMARK    2  A    between atoms: C16_17  and  N1_18 
REMARK       I    between atoms: N2_23  and  C19_24 
ROOT
ATOM      1  C1   11 d          -7.336 208.862 115.530  0.00  0.00     0.072 C 
ATOM      2  C2   11 d          -8.035 208.718 114.227  0.00  0.00    -0.000 A 
ATOM      3  C3   11 d          -7.275 208.797 113.031  0.00  0.00    -0.046 A 
ATOM      4  C4   11 d          -7.915 208.583 111.794  0.00  0.00     0.011 A 
ATOM      5  C5   11 d          -9.296 208.345 111.741  0.00  0.00     0.037 A 
ATOM      6  C6   11 d         -10.046 208.267 112.922  0.00  0.00     0.069 A 
ATOM      7  C8   11 d          -9.422 208.480 114.161  0.00  0.00     0.050 A 
ATOM      8  C9   11 d          -5.766 208.959 113.068  0.00  0.00     0.040 C 
ATOM      9  C10  11 d          -5.141 208.505 114.399  0.00  0.00     0.018 C 
ATOM     10  C11  11 d          -5.871 209.161 115.586  0.00  0.00     0.070 C 
ATOM     11  C12  11 d          -5.520 208.756 117.025  0.00  0.00     0.156 C 
ATOM     12  C13  11 d          -4.700 207.480 117.131  0.00  0.00    -0.032 A 
ATOM     13  C14  11 d          -5.308 206.211 117.229  0.00  0.00     0.012 A 
ATOM     14  C15  11 d          -4.529 205.055 117.393  0.00  0.00     0.037 A 
ATOM     15  C16  11 d          -3.119 205.134 117.482  0.00  0.00     0.102 A 
ATOM     16  C17  11 d          -2.521 206.414 117.424  0.00  0.00     0.037 A 
ATOM     17  C18  11 d          -3.301 207.568 117.266  0.00  0.00     0.012 A 
ATOM     18  N2   11 d          -6.878 208.622 117.624  0.00  0.00    -0.228 N 
ATOM     19  C19  11 d          -7.147 208.477 119.016  0.00  0.00     0.236 C 
ATOM     20  O4   11 d          -6.175 208.482 119.852  0.00  0.00    -0.272 OA
ATOM     21  C20  11 d          -8.551 208.372 119.529  0.00  0.00     0.119 C 
ATOM     22  N3   11 d          -7.902 208.643 116.681  0.00  0.00    -0.172 NA
ENDROOT
BRANCH  15  23
ATOM     23  N1   11 d          -2.335 203.987 117.634  0.00  0.00    -0.116 N 
ATOM     24  O2   11 d          -2.783 203.033 118.084  0.00  0.00    -0.532 OA
ATOM     25  O3   11 d          -1.193 203.913 117.102  0.00  0.00    -0.532 OA
ENDBRANCH  15  23
BRANCH   6  26
ATOM     26  O1   11 d         -11.455 208.096 112.857  0.00  0.00    -0.356 OA
ATOM     27  C7   11 d         -11.972 207.851 114.190  0.00  0.00     0.210 C 
ENDBRANCH   6  26
TORSDOF 2
ENDMDL
MODEL 5
REMARK VINA RESULT:      -6.8     11.216     14.787
REMARK  2 active torsions:
REMARK  status: ('A' for Active; 'I' for Inactive)
REMARK    1  A    between atoms: C6_6  and  O1_7 
REMARK    2  A    between atoms: C16_17  and  N1_18 
REMARK       I    between atoms: N2_23  and  C19_24 
ROOT
ATOM      1  C1   11 d         -19.944 204.104 123.783  0.00  0.00     0.072 C 
ATOM      2  C2   11 d         -20.535 202.744 123.707  0.00  0.00    -0.000 A 
ATOM      3  C3   11 d         -20.858 202.207 122.433  0.00  0.00    -0.046 A 
ATOM      4  C4   11 d         -21.345 200.888 122.346  0.00  0.00     0.011 A 
ATOM      5  C5   11 d         -21.558 200.131 123.507  0.00  0.00     0.037 A 
ATOM      6  C6   11 d         -21.239 200.661 124.765  0.00  0.00     0.069 A 
ATOM      7  C8   11 d         -20.755 201.974 124.867  0.00  0.00     0.050 A 
ATOM      8  C9   11 d         -20.549 202.972 121.158  0.00  0.00     0.040 C 
ATOM      9  C10  11 d         -19.446 204.029 121.339  0.00  0.00     0.018 C 
ATOM     10  C11  11 d         -19.760 204.930 122.549  0.00  0.00     0.070 C 
ATOM     11  C12  11 d         -18.736 205.975 123.017  0.00  0.00     0.156 C 
ATOM     12  C13  11 d         -17.344 205.789 122.432  0.00  0.00    -0.032 A 
ATOM     13  C14  11 d         -16.375 204.980 123.060  0.00  0.00     0.012 A 
ATOM     14  C15  11 d         -15.078 204.881 122.536  0.00  0.00     0.037 A 
ATOM     15  C16  11 d         -14.703 205.600 121.376  0.00  0.00     0.102 A 
ATOM     16  C17  11 d         -15.670 206.440 120.776  0.00  0.00     0.037 A 
ATOM     17  C18  11 d         -16.964 206.544 121.306  0.00  0.00     0.012 A 
ATOM     18  N2   11 d         -18.775 205.772 124.493  0.00  0.00    -0.228 N 
ATOM     19  C19  11 d         -18.176 206.638 125.453  0.00  0.00     0.236 C 
ATOM     20  O4   11 d         -17.569 207.696 125.059  0.00  0.00    -0.272 OA
ATOM     21  C20  11 d         -18.287 206.364 126.922  0.00  0.00     0.119 C 
ATOM     22  N3   11 d         -19.462 204.622 124.874  0.00  0.00    -0.172 NA
ENDROOT
BRANCH  15  23
ATOM     23  N1   11 d         -13.417 205.497 120.840  0.00  0.00    -0.116 N 
ATOM     24  O2   11 d         -13.246 205.616 119.714  0.00  0.00    -0.532 OA
ATOM     25  O3   11 d         -12.405 205.477 121.595  0.00  0.00    -0.532 OA
ENDBRANCH  15  23
BRANCH   6  26
ATOM     26  O1   11 d         -21.523 199.915 125.940  0.00  0.00    -0.356 OA
ATOM     27  C7   11 d         -22.583 200.571 126.682  0.00  0.00     0.210 C 
ENDBRANCH   6  26
TORSDOF 2
ENDMDL
MODEL 6
REMARK VINA RESULT:      -6.6     15.106     20.288
REMARK  2 active torsions:
REMARK  status: ('A' for Active; 'I' for Inactive)
REMARK    1  A    between atoms: C6_6  and  O1_7 
REMARK    2  A    between atoms: C16_17  and  N1_18 
REMARK       I    between atoms: N2_23  and  C19_24 
ROOT
ATOM      1  C1   11 d         -20.906 202.225 124.325  0.00  0.00     0.072 C 
ATOM      2  C2   11 d         -20.284 203.055 123.262  0.00  0.00    -0.000 A 
ATOM      3  C3   11 d         -20.180 202.522 121.950  0.00  0.00    -0.046 A 
ATOM      4  C4   11 d         -19.664 203.330 120.918  0.00  0.00     0.011 A 
ATOM      5  C5   11 d         -19.211 204.629 121.192  0.00  0.00     0.037 A 
ATOM      6  C6   11 d         -19.315 205.156 122.487  0.00  0.00     0.069 A 
ATOM      7  C8   11 d         -19.825 204.361 123.525  0.00  0.00     0.050 A 
ATOM      8  C9   11 d         -20.747 201.155 121.611  0.00  0.00     0.040 C 
ATOM      9  C10  11 d         -21.840 200.693 122.591  0.00  0.00     0.018 C 
ATOM     10  C11  11 d         -21.347 200.822 124.045  0.00  0.00     0.070 C 
ATOM     11  C12  11 d         -22.309 200.554 125.211  0.00  0.00     0.156 C 
ATOM     12  C13  11 d         -23.775 200.506 124.812  0.00  0.00    -0.032 A 
ATOM     13  C14  11 d         -24.579 201.664 124.794  0.00  0.00     0.012 A 
ATOM     14  C15  11 d         -25.946 201.581 124.487  0.00  0.00     0.037 A 
ATOM     15  C16  11 d         -26.555 200.335 124.205  0.00  0.00     0.102 A 
ATOM     16  C17  11 d         -25.750 199.175 124.264  0.00  0.00     0.037 A 
ATOM     17  C18  11 d         -24.385 199.258 124.578  0.00  0.00     0.012 A 
ATOM     18  N2   11 d         -21.991 201.697 126.113  0.00  0.00    -0.228 N 
ATOM     19  C19  11 d         -22.439 201.824 127.460  0.00  0.00     0.236 C 
ATOM     20  O4   11 d         -23.150 200.894 127.981  0.00  0.00    -0.272 OA
ATOM     21  C20  11 d         -22.049 203.003 128.300  0.00  0.00     0.119 C 
ATOM     22  N3   11 d         -21.201 202.672 125.511  0.00  0.00    -0.172 NA
ENDROOT
BRANCH  15  23
ATOM     23  N1   11 d         -27.912 200.245 123.887  0.00  0.00    -0.116 N 
ATOM     24  O2   11 d         -28.538 201.193 123.734  0.00  0.00    -0.532 OA
ATOM     25  O3   11 d         -28.427 199.138 123.565  0.00  0.00    -0.532 OA
ENDBRANCH  15  23
BRANCH   6  26
ATOM     26  O1   11 d         -18.791 206.445 122.771  0.00  0.00    -0.356 OA
ATOM     27  C7   11 d         -17.909 206.363 123.920  0.00  0.00     0.210 C 
ENDBRANCH   6  26
TORSDOF 2
ENDMDL
MODEL 7
REMARK VINA RESULT:      -6.5      5.598      8.468
REMARK  2 active torsions:
REMARK  status: ('A' for Active; 'I' for Inactive)
REMARK    1  A    between atoms: C6_6  and  O1_7 
REMARK    2  A    between atoms: C16_17  and  N1_18 
REMARK       I    between atoms: N2_23  and  C19_24 
ROOT
ATOM      1  C1   11 d         -10.008 205.559 120.744  0.00  0.00     0.072 C 
ATOM      2  C2   11 d         -10.485 204.962 122.018  0.00  0.00    -0.000 A 
ATOM      3  C3   11 d          -9.528 204.501 122.959  0.00  0.00    -0.046 A 
ATOM      4  C4   11 d          -9.968 204.006 124.202  0.00  0.00     0.011 A 
ATOM      5  C5   11 d         -11.339 203.923 124.488  0.00  0.00     0.037 A 
ATOM      6  C6   11 d         -12.284 204.379 123.559  0.00  0.00     0.069 A 
ATOM      7  C8   11 d         -11.859 204.872 122.316  0.00  0.00     0.050 A 
ATOM      8  C9   11 d          -8.039 204.667 122.710  0.00  0.00     0.040 C 
ATOM      9  C10  11 d          -7.715 205.784 121.703  0.00  0.00     0.018 C 
ATOM     10  C11  11 d          -8.548 205.606 120.419  0.00  0.00     0.070 C 
ATOM     11  C12  11 d          -8.503 206.676 119.317  0.00  0.00     0.156 C 
ATOM     12  C13  11 d          -7.883 207.994 119.754  0.00  0.00    -0.032 A 
ATOM     13  C14  11 d          -8.655 209.026 120.324  0.00  0.00     0.012 A 
ATOM     14  C15  11 d          -8.070 210.258 120.656  0.00  0.00     0.037 A 
ATOM     15  C16  11 d          -6.698 210.501 120.411  0.00  0.00     0.102 A 
ATOM     16  C17  11 d          -5.941 209.475 119.801  0.00  0.00     0.037 A 
ATOM     17  C18  11 d          -6.528 208.247 119.465  0.00  0.00     0.012 A 
ATOM     18  N2   11 d          -9.950 206.800 118.981  0.00  0.00    -0.228 N 
ATOM     19  C19  11 d         -10.469 207.502 117.855  0.00  0.00     0.236 C 
ATOM     20  O4   11 d          -9.663 208.062 117.031  0.00  0.00    -0.272 OA
ATOM     21  C20  11 d         -11.942 207.554 117.584  0.00  0.00     0.119 C 
ATOM     22  N3   11 d         -10.786 206.159 119.892  0.00  0.00    -0.172 NA
ENDROOT
BRANCH  15  23
ATOM     23  N1   11 d          -6.105 211.721 120.748  0.00  0.00    -0.116 N 
ATOM     24  O2   11 d          -6.066 212.578 119.989  0.00  0.00    -0.532 OA
ATOM     25  O3   11 d          -5.786 211.973 121.944  0.00  0.00    -0.532 OA
ENDBRANCH  15  23
BRANCH   6  26
ATOM     26  O1   11 d         -13.671 204.227 123.827  0.00  0.00    -0.356 OA
ATOM     27  C7   11 d         -14.265 203.375 122.814  0.00  0.00     0.210 C 
ENDBRANCH   6  26
TORSDOF 2
ENDMDL
MODEL 8
REMARK VINA RESULT:      -6.5      4.043      6.715
REMARK  2 active torsions:
REMARK  status: ('A' for Active; 'I' for Inactive)
REMARK    1  A    between atoms: C6_6  and  O1_7 
REMARK    2  A    between atoms: C16_17  and  N1_18 
REMARK       I    between atoms: N2_23  and  C19_24 
ROOT
ATOM      1  C1   11 d          -7.054 208.570 117.352  0.00  0.00     0.072 C 
ATOM      2  C2   11 d          -6.428 208.917 116.050  0.00  0.00    -0.000 A 
ATOM      3  C3   11 d          -5.062 209.302 116.027  0.00  0.00    -0.046 A 
ATOM      4  C4   11 d          -4.439 209.556 114.790  0.00  0.00     0.011 A 
ATOM      5  C5   11 d          -5.172 209.480 113.597  0.00  0.00     0.037 A 
ATOM      6  C6   11 d          -6.521 209.100 113.619  0.00  0.00     0.069 A 
ATOM      7  C8   11 d          -7.155 208.846 114.845  0.00  0.00     0.050 A 
ATOM      8  C9   11 d          -4.225 209.301 117.294  0.00  0.00     0.040 C 
ATOM      9  C10  11 d          -4.794 208.388 118.395  0.00  0.00     0.018 C 
ATOM     10  C11  11 d          -6.286 208.696 118.630  0.00  0.00     0.070 C 
ATOM     11  C12  11 d          -7.112 207.821 119.583  0.00  0.00     0.156 C 
ATOM     12  C13  11 d          -6.446 206.507 119.958  0.00  0.00    -0.032 A 
ATOM     13  C14  11 d          -6.626 205.337 119.191  0.00  0.00     0.012 A 
ATOM     14  C15  11 d          -6.054 204.121 119.597  0.00  0.00     0.037 A 
ATOM     15  C16  11 d          -5.300 204.033 120.790  0.00  0.00     0.102 A 
ATOM     16  C17  11 d          -5.159 205.202 121.573  0.00  0.00     0.037 A 
ATOM     17  C18  11 d          -5.736 206.415 121.170  0.00  0.00     0.012 A 
ATOM     18  N2   11 d          -8.360 207.632 118.790  0.00  0.00    -0.228 N 
ATOM     19  C19  11 d          -9.571 207.076 119.292  0.00  0.00     0.236 C 
ATOM     20  O4   11 d          -9.643 206.722 120.522  0.00  0.00    -0.272 OA
ATOM     21  C20  11 d         -10.785 206.946 118.423  0.00  0.00     0.119 C 
ATOM     22  N3   11 d          -8.241 208.050 117.467  0.00  0.00    -0.172 NA
ENDROOT
BRANCH  15  23
ATOM     23  N1   11 d          -4.718 202.829 121.195  0.00  0.00    -0.116 N 
ATOM     24  O2   11 d          -5.284 202.114 121.890  0.00  0.00    -0.532 OA
ATOM     25  O3   11 d          -3.657 202.412 120.653  0.00  0.00    -0.532 OA
ENDBRANCH  15  23
BRANCH   6  26
ATOM     26  O1   11 d          -7.275 209.093 112.415  0.00  0.00    -0.356 OA
ATOM     27  C7   11 d          -8.614 209.582 112.683  0.00  0.00     0.210 C 
ENDBRANCH   6  26
TORSDOF 2
ENDMDL
MODEL 9
REMARK VINA RESULT:      -6.4      3.268      6.027
REMARK  2 active torsions:
REMARK  status: ('A' for Active; 'I' for Inactive)
REMARK    1  A    between atoms: C6_6  and  O1_7 
REMARK    2  A    between atoms: C16_17  and  N1_18 
REMARK       I    between atoms: N2_23  and  C19_24 
ROOT
ATOM      1  C1   11 d          -7.950 208.038 117.081  0.00  0.00     0.072 C 
ATOM      2  C2   11 d          -9.426 207.870 117.097  0.00  0.00    -0.000 A 
ATOM      3  C3   11 d         -10.033 207.260 118.226  0.00  0.00    -0.046 A 
ATOM      4  C4   11 d         -11.438 207.167 118.286  0.00  0.00     0.011 A 
ATOM      5  C5   11 d         -12.226 207.625 117.220  0.00  0.00     0.037 A 
ATOM      6  C6   11 d         -11.626 208.228 116.105  0.00  0.00     0.069 A 
ATOM      7  C8   11 d         -10.228 208.325 116.032  0.00  0.00     0.050 A 
ATOM      8  C9   11 d          -9.209 206.842 119.432  0.00  0.00     0.040 C 
ATOM      9  C10  11 d          -7.867 207.588 119.534  0.00  0.00     0.018 C 
ATOM     10  C11  11 d          -7.106 207.508 118.197  0.00  0.00     0.070 C 
ATOM     11  C12  11 d          -5.800 208.295 118.006  0.00  0.00     0.156 C 
ATOM     12  C13  11 d          -5.553 209.358 119.064  0.00  0.00    -0.032 A 
ATOM     13  C14  11 d          -6.030 210.677 118.919  0.00  0.00     0.012 A 
ATOM     14  C15  11 d          -5.731 211.657 119.878  0.00  0.00     0.037 A 
ATOM     15  C16  11 d          -4.930 211.353 121.004  0.00  0.00     0.102 A 
ATOM     16  C17  11 d          -4.422 210.038 121.121  0.00  0.00     0.037 A 
ATOM     17  C18  11 d          -4.717 209.062 120.158  0.00  0.00     0.012 A 
ATOM     18  N2   11 d          -6.007 208.868 116.646  0.00  0.00    -0.228 N 
ATOM     19  C19  11 d          -5.002 209.512 115.869  0.00  0.00     0.236 C 
ATOM     20  O4   11 d          -3.809 209.604 116.329  0.00  0.00    -0.272 OA
ATOM     21  C20  11 d          -5.299 210.039 114.498  0.00  0.00     0.119 C 
ATOM     22  N3   11 d          -7.312 208.726 116.181  0.00  0.00    -0.172 NA
ENDROOT
BRANCH  15  23
ATOM     23  N1   11 d          -4.636 212.319 121.969  0.00  0.00    -0.116 N 
ATOM     24  O2   11 d          -5.472 212.780 122.603  0.00  0.00    -0.532 OA
ATOM     25  O3   11 d          -3.441 212.554 122.302  0.00  0.00    -0.532 OA
ENDBRANCH  15  23
BRANCH   6  26
ATOM     26  O1   11 d         -12.424 208.625 114.999  0.00  0.00    -0.356 OA
ATOM     27  C7   11 d         -13.820 208.364 115.296  0.00  0.00     0.210 C 
ENDBRANCH   6  26
TORSDOF 2
ENDMDL
MODEL 10
REMARK VINA RESULT:      -6.1     15.927     20.126
REMARK  2 active torsions:
REMARK  status: ('A' for Active; 'I' for Inactive)
REMARK    1  A    between atoms: C6_6  and  O1_7 
REMARK    2  A    between atoms: C16_17  and  N1_18 
REMARK       I    between atoms: N2_23  and  C19_24 
ROOT
ATOM      1  C1   11 d         -24.220 199.722 125.023  0.00  0.00     0.072 C 
ATOM      2  C2   11 d         -25.599 199.512 124.513  0.00  0.00    -0.000 A 
ATOM      3  C3   11 d         -26.479 200.623 124.441  0.00  0.00    -0.046 A 
ATOM      4  C4   11 d         -27.762 200.449 123.885  0.00  0.00     0.011 A 
ATOM      5  C5   11 d         -28.185 199.183 123.455  0.00  0.00     0.037 A 
ATOM      6  C6   11 d         -27.315 198.086 123.526  0.00  0.00     0.069 A 
ATOM      7  C8   11 d         -26.035 198.244 124.079  0.00  0.00     0.050 A 
ATOM      8  C9   11 d         -26.014 202.019 124.813  0.00  0.00     0.040 C 
ATOM      9  C10  11 d         -24.486 202.187 124.739  0.00  0.00     0.018 C 
ATOM     10  C11  11 d         -23.784 201.063 125.525  0.00  0.00     0.070 C 
ATOM     11  C12  11 d         -22.254 200.934 125.485  0.00  0.00     0.156 C 
ATOM     12  C13  11 d         -21.589 201.746 124.384  0.00  0.00    -0.032 A 
ATOM     13  C14  11 d         -21.379 201.217 123.094  0.00  0.00     0.012 A 
ATOM     14  C15  11 d         -20.703 201.964 122.117  0.00  0.00     0.037 A 
ATOM     15  C16  11 d         -20.200 203.254 122.405  0.00  0.00     0.102 A 
ATOM     16  C17  11 d         -20.379 203.760 123.713  0.00  0.00     0.037 A 
ATOM     17  C18  11 d         -21.050 203.010 124.690  0.00  0.00     0.012 A 
ATOM     18  N2   11 d         -22.096 199.464 125.296  0.00  0.00    -0.228 N 
ATOM     19  C19  11 d         -20.867 198.753 125.413  0.00  0.00     0.236 C 
ATOM     20  O4   11 d         -19.797 199.385 125.727  0.00  0.00    -0.272 OA
ATOM     21  C20  11 d         -20.808 197.267 125.227  0.00  0.00     0.119 C 
ATOM     22  N3   11 d         -23.287 198.817 124.976  0.00  0.00    -0.172 NA
ENDROOT
BRANCH  15  23
ATOM     23  N1   11 d         -19.535 204.009 121.435  0.00  0.00    -0.116 N 
ATOM     24  O2   11 d         -19.046 203.496 120.534  0.00  0.00    -0.532 OA
ATOM     25  O3   11 d         -19.631 205.268 121.420  0.00  0.00    -0.532 OA
ENDBRANCH  15  23
BRANCH   6  26
ATOM     26  O1   11 d         -27.773 196.793 123.154  0.00  0.00    -0.356 OA
ATOM     27  C7   11 d         -26.643 195.982 122.742  0.00  0.00     0.210 C 
ENDBRANCH   6  26
TORSDOF 2
ENDMDL
