MODEL 1
REMARK VINA RESULT:      -9.5      0.000      0.000
REMARK  5 active torsions:
REMARK  status: ('A' for Active; 'I' for Inactive)
REMARK    1  A    between atoms: C16_18  and  C17_19 
REMARK    2  A    between atoms: C17_19  and  O4_21 
REMARK    3  A    between atoms: N1_25  and  C22_28 
REMARK    4  A    between atoms: C22_28  and  C23_29 
REMARK    5  A    between atoms: C23_29  and  C24_30 
ROOT
ATOM      1  C1   11 d           1.192  44.119  54.786  0.00  0.00     0.156 A 
ATOM      2  C2   11 d           1.332  44.408  53.444  0.00  0.00     0.060 A 
ATOM      3  C3   11 d           0.494  43.757  52.526  0.00  0.00     0.196 A 
ATOM      4  C4   11 d          -0.432  42.800  53.010  0.00  0.00     0.049 A 
ATOM      5  C5   11 d          -0.467  42.555  54.411  0.00  0.00     0.091 A 
ATOM      6  O1   11 d           0.329  43.223  55.231  0.00  0.00    -0.303 OA
ATOM      7  C6   11 d          -1.342  41.592  54.928  0.00  0.00     0.045 A 
ATOM      8  C7   11 d          -2.184  40.847  54.078  0.00  0.00    -0.053 A 
ATOM      9  C8   11 d          -2.205  41.138  52.687  0.00  0.00    -0.055 A 
ATOM     10  C9   11 d          -1.303  42.087  52.163  0.00  0.00     0.025 A 
ATOM     11  C10  11 d          -3.043  40.336  51.719  0.00  0.00     0.049 C 
ATOM     12  C11  11 d          -3.158  39.880  54.707  0.00  0.00     0.049 C 
ATOM     13  O2   11 d           0.574  44.026  51.300  0.00  0.00    -0.287 OA
ATOM     14  C12  11 d           2.428  45.425  53.199  0.00  0.00     0.161 A 
ATOM     15  C13  11 d           3.611  44.933  52.362  0.00  0.00    -0.030 A 
ATOM     16  C14  11 d           4.642  45.839  52.033  0.00  0.00     0.011 A 
ATOM     17  C15  11 d           5.773  45.425  51.312  0.00  0.00     0.018 A 
ATOM     18  C16  11 d           5.906  44.088  50.893  0.00  0.00     0.039 A 
ATOM     19  C19  11 d           4.862  43.187  51.176  0.00  0.00     0.018 A 
ATOM     20  C20  11 d           3.729  43.603  51.890  0.00  0.00     0.011 A 
ATOM     21  N1   11 d           2.837  45.783  54.613  0.00  0.00    -0.333 N 
ATOM     22  C21  11 d           2.147  44.927  55.517  0.00  0.00     0.279 A 
ATOM     23  O5   11 d           2.338  44.861  56.781  0.00  0.00    -0.265 OA
ENDROOT
BRANCH  21  24
ATOM     24  C22  11 d           3.811  46.878  54.951  0.00  0.00     0.132 C 
BRANCH  24  25
ATOM     25  C23  11 d           5.180  46.435  55.493  0.00  0.00     0.058 C 
BRANCH  25  26
ATOM     26  C24  11 d           6.410  46.943  54.760  0.00  0.00    -0.057 A 
ATOM     27  C25  11 d           7.451  46.022  54.510  0.00  0.00     0.007 A 
ATOM     28  C26  11 d           8.591  46.402  53.787  0.00  0.00     0.001 A 
ATOM     29  C27  11 d           8.700  47.705  53.285  0.00  0.00     0.000 A 
ATOM     30  C28  11 d           7.665  48.625  53.498  0.00  0.00     0.001 A 
ATOM     31  C29  11 d           6.522  48.247  54.221  0.00  0.00     0.007 A 
ENDBRANCH  25  26
ENDBRANCH  24  25
ENDBRANCH  21  24
BRANCH  18  32
ATOM     32  C17  11 d           7.132  43.621  50.189  0.00  0.00     0.292 C 
ATOM     33  O3   11 d           7.102  43.412  48.945  0.00  0.00    -0.259 OA
BRANCH  32  34
ATOM     34  O4   11 d           8.325  43.369  50.942  0.00  0.00    -0.323 OA
ATOM     35  C18  11 d           9.354  44.376  50.763  0.00  0.00     0.213 C 
ENDBRANCH  32  34
ENDBRANCH  18  32
TORSDOF 5
ENDMDL
MODEL 2
REMARK VINA RESULT:      -9.2      3.122      5.298
REMARK  5 active torsions:
REMARK  status: ('A' for Active; 'I' for Inactive)
REMARK    1  A    between atoms: C16_18  and  C17_19 
REMARK    2  A    between atoms: C17_19  and  O4_21 
REMARK    3  A    between atoms: N1_25  and  C22_28 
REMARK    4  A    between atoms: C22_28  and  C23_29 
REMARK    5  A    between atoms: C23_29  and  C24_30 
ROOT
ATOM      1  C1   11 d           0.677  45.059  53.702  0.00  0.00     0.156 A 
ATOM      2  C2   11 d           1.428  45.297  54.835  0.00  0.00     0.060 A 
ATOM      3  C3   11 d           0.866  46.070  55.862  0.00  0.00     0.196 A 
ATOM      4  C4   11 d          -0.432  46.607  55.678  0.00  0.00     0.049 A 
ATOM      5  C5   11 d          -1.103  46.327  54.455  0.00  0.00     0.091 A 
ATOM      6  O1   11 d          -0.532  45.566  53.533  0.00  0.00    -0.303 OA
ATOM      7  C6   11 d          -2.372  46.866  54.216  0.00  0.00     0.045 A 
ATOM      8  C7   11 d          -2.995  47.700  55.166  0.00  0.00    -0.053 A 
ATOM      9  C8   11 d          -2.363  47.925  56.419  0.00  0.00    -0.055 A 
ATOM     10  C9   11 d          -1.071  47.405  56.647  0.00  0.00     0.025 A 
ATOM     11  C10  11 d          -2.954  48.853  57.453  0.00  0.00     0.049 C 
ATOM     12  C11  11 d          -4.396  48.186  54.880  0.00  0.00     0.049 C 
ATOM     13  O2   11 d           1.512  46.274  56.922  0.00  0.00    -0.287 OA
ATOM     14  C12  11 d           2.795  44.651  54.750  0.00  0.00     0.161 A 
ATOM     15  C13  11 d           3.984  45.614  54.772  0.00  0.00    -0.030 A 
ATOM     16  C14  11 d           5.294  45.088  54.762  0.00  0.00     0.011 A 
ATOM     17  C15  11 d           6.417  45.928  54.730  0.00  0.00     0.018 A 
ATOM     18  C16  11 d           6.264  47.328  54.708  0.00  0.00     0.039 A 
ATOM     19  C19  11 d           4.965  47.864  54.763  0.00  0.00     0.018 A 
ATOM     20  C20  11 d           3.843  47.022  54.803  0.00  0.00     0.011 A 
ATOM     21  N1   11 d           2.697  43.893  53.441  0.00  0.00    -0.333 N 
ATOM     22  C21  11 d           1.465  44.231  52.812  0.00  0.00     0.279 A 
ATOM     23  O5   11 d           1.102  43.876  51.637  0.00  0.00    -0.265 OA
ENDROOT
BRANCH  21  24
ATOM     24  C22  11 d           3.751  42.945  52.941  0.00  0.00     0.132 C 
BRANCH  24  25
ATOM     25  C23  11 d           4.137  43.069  51.458  0.00  0.00     0.058 C 
BRANCH  25  26
ATOM     26  C24  11 d           5.508  43.645  51.147  0.00  0.00    -0.057 A 
ATOM     27  C25  11 d           5.742  44.998  51.476  0.00  0.00     0.007 A 
ATOM     28  C26  11 d           7.000  45.582  51.273  0.00  0.00     0.001 A 
ATOM     29  C27  11 d           8.053  44.816  50.755  0.00  0.00     0.000 A 
ATOM     30  C28  11 d           7.847  43.465  50.448  0.00  0.00     0.001 A 
ATOM     31  C29  11 d           6.589  42.877  50.651  0.00  0.00     0.007 A 
ENDBRANCH  25  26
ENDBRANCH  24  25
ENDBRANCH  21  24
BRANCH  18  32
ATOM     32  C17  11 d           7.446  48.228  54.602  0.00  0.00     0.292 C 
ATOM     33  O3   11 d           7.711  48.791  53.504  0.00  0.00    -0.259 OA
BRANCH  32  34
ATOM     34  O4   11 d           8.298  48.410  55.740  0.00  0.00    -0.323 OA
ATOM     35  C18  11 d           9.516  47.624  55.690  0.00  0.00     0.213 C 
ENDBRANCH  32  34
ENDBRANCH  18  32
TORSDOF 5
ENDMDL
MODEL 3
REMARK VINA RESULT:      -8.9      2.509      8.205
REMARK  5 active torsions:
REMARK  status: ('A' for Active; 'I' for Inactive)
REMARK    1  A    between atoms: C16_18  and  C17_19 
REMARK    2  A    between atoms: C17_19  and  O4_21 
REMARK    3  A    between atoms: N1_25  and  C22_28 
REMARK    4  A    between atoms: C22_28  and  C23_29 
REMARK    5  A    between atoms: C23_29  and  C24_30 
ROOT
ATOM      1  C1   11 d           2.720  46.363  55.571  0.00  0.00     0.156 A 
ATOM      2  C2   11 d           2.807  45.056  55.137  0.00  0.00     0.060 A 
ATOM      3  C3   11 d           3.950  44.660  54.427  0.00  0.00     0.196 A 
ATOM      4  C4   11 d           4.947  45.627  54.148  0.00  0.00     0.049 A 
ATOM      5  C5   11 d           4.738  46.955  54.612  0.00  0.00     0.091 A 
ATOM      6  O1   11 d           3.651  47.262  55.304  0.00  0.00    -0.303 OA
ATOM      7  C6   11 d           5.680  47.949  54.329  0.00  0.00     0.045 A 
ATOM      8  C7   11 d           6.835  47.660  53.573  0.00  0.00    -0.053 A 
ATOM      9  C8   11 d           7.085  46.321  53.168  0.00  0.00    -0.055 A 
ATOM     10  C9   11 d           6.120  45.326  53.429  0.00  0.00     0.025 A 
ATOM     11  C10  11 d           8.273  45.959  52.308  0.00  0.00     0.049 C 
ATOM     12  C11  11 d           7.849  48.760  53.369  0.00  0.00     0.049 C 
ATOM     13  O2   11 d           4.075  43.466  54.049  0.00  0.00    -0.287 OA
ATOM     14  C12  11 d           1.584  44.251  55.526  0.00  0.00     0.161 A 
ATOM     15  C13  11 d           0.755  43.705  54.361  0.00  0.00    -0.030 A 
ATOM     16  C14  11 d          -0.363  42.890  54.638  0.00  0.00     0.011 A 
ATOM     17  C15  11 d          -1.185  42.406  53.609  0.00  0.00     0.018 A 
ATOM     18  C16  11 d          -0.911  42.722  52.264  0.00  0.00     0.039 A 
ATOM     19  C19  11 d           0.227  43.496  51.974  0.00  0.00     0.018 A 
ATOM     20  C20  11 d           1.053  43.973  53.003  0.00  0.00     0.011 A 
ATOM     21  N1   11 d           0.809  45.252  56.359  0.00  0.00    -0.333 N 
ATOM     22  C21  11 d           1.470  46.511  56.288  0.00  0.00     0.279 A 
ATOM     23  O5   11 d           1.033  47.615  56.768  0.00  0.00    -0.265 OA
ENDROOT
BRANCH  21  24
ATOM     24  C22  11 d          -0.441  44.916  57.123  0.00  0.00     0.132 C 
BRANCH  24  25
ATOM     25  C23  11 d          -1.688  45.753  56.800  0.00  0.00     0.058 C 
BRANCH  25  26
ATOM     26  C24  11 d          -2.273  45.612  55.405  0.00  0.00    -0.057 A 
ATOM     27  C25  11 d          -3.441  44.832  55.259  0.00  0.00     0.007 A 
ATOM     28  C26  11 d          -4.072  44.705  54.013  0.00  0.00     0.001 A 
ATOM     29  C27  11 d          -3.555  45.373  52.895  0.00  0.00     0.000 A 
ATOM     30  C28  11 d          -2.414  46.174  53.026  0.00  0.00     0.001 A 
ATOM     31  C29  11 d          -1.781  46.303  54.272  0.00  0.00     0.007 A 
ENDBRANCH  25  26
ENDBRANCH  24  25
ENDBRANCH  21  24
BRANCH  18  32
ATOM     32  C17  11 d          -1.815  42.273  51.169  0.00  0.00     0.292 C 
ATOM     33  O3   11 d          -2.684  41.387  51.395  0.00  0.00    -0.259 OA
BRANCH  32  34
ATOM     34  O4   11 d          -1.658  42.823  49.855  0.00  0.00    -0.323 OA
ATOM     35  C18  11 d          -2.587  43.895  49.553  0.00  0.00     0.213 C 
ENDBRANCH  32  34
ENDBRANCH  18  32
TORSDOF 5
ENDMDL
MODEL 4
REMARK VINA RESULT:      -8.9      2.185      2.844
REMARK  5 active torsions:
REMARK  status: ('A' for Active; 'I' for Inactive)
REMARK    1  A    between atoms: C16_18  and  C17_19 
REMARK    2  A    between atoms: C17_19  and  O4_21 
REMARK    3  A    between atoms: N1_25  and  C22_28 
REMARK    4  A    between atoms: C22_28  and  C23_29 
REMARK    5  A    between atoms: C23_29  and  C24_30 
ROOT
ATOM      1  C1   11 d           1.736  45.637  55.682  0.00  0.00     0.156 A 
ATOM      2  C2   11 d           1.469  45.503  54.335  0.00  0.00     0.060 A 
ATOM      3  C3   11 d           0.194  45.068  53.944  0.00  0.00     0.196 A 
ATOM      4  C4   11 d          -0.753  44.746  54.946  0.00  0.00     0.049 A 
ATOM      5  C5   11 d          -0.359  44.887  56.306  0.00  0.00     0.091 A 
ATOM      6  O1   11 d           0.850  45.331  56.614  0.00  0.00    -0.303 OA
ATOM      7  C6   11 d          -1.251  44.546  57.329  0.00  0.00     0.045 A 
ATOM      8  C7   11 d          -2.536  44.047  57.035  0.00  0.00    -0.053 A 
ATOM      9  C8   11 d          -2.961  43.971  55.680  0.00  0.00    -0.055 A 
ATOM     10  C9   11 d          -2.051  44.288  54.650  0.00  0.00     0.025 A 
ATOM     11  C10  11 d          -4.303  43.393  55.299  0.00  0.00     0.049 C 
ATOM     12  C11  11 d          -3.476  43.771  58.184  0.00  0.00     0.049 C 
ATOM     13  O2   11 d          -0.090  44.970  52.722  0.00  0.00    -0.287 OA
ATOM     14  C12  11 d           2.670  45.864  53.485  0.00  0.00     0.161 A 
ATOM     15  C13  11 d           3.243  44.729  52.633  0.00  0.00    -0.030 A 
ATOM     16  C14  11 d           4.321  45.000  51.764  0.00  0.00     0.011 A 
ATOM     17  C15  11 d           4.914  43.983  51.001  0.00  0.00     0.018 A 
ATOM     18  C16  11 d           4.444  42.659  51.081  0.00  0.00     0.039 A 
ATOM     19  C19  11 d           3.341  42.386  51.910  0.00  0.00     0.018 A 
ATOM     20  C20  11 d           2.743  43.404  52.668  0.00  0.00     0.011 A 
ATOM     21  N1   11 d           3.654  46.347  54.532  0.00  0.00    -0.333 N 
ATOM     22  C21  11 d           3.097  46.113  55.821  0.00  0.00     0.279 A 
ATOM     23  O5   11 d           3.698  46.282  56.939  0.00  0.00    -0.265 OA
ENDROOT
BRANCH  21  24
ATOM     24  C22  11 d           4.984  46.969  54.207  0.00  0.00     0.132 C 
BRANCH  24  25
ATOM     25  C23  11 d           6.211  46.373  54.914  0.00  0.00     0.058 C 
BRANCH  25  26
ATOM     26  C24  11 d           7.518  46.365  54.140  0.00  0.00    -0.057 A 
ATOM     27  C25  11 d           7.472  45.995  52.778  0.00  0.00     0.007 A 
ATOM     28  C26  11 d           8.628  46.022  51.985  0.00  0.00     0.001 A 
ATOM     29  C27  11 d           9.847  46.439  52.536  0.00  0.00     0.000 A 
ATOM     30  C28  11 d           9.907  46.836  53.877  0.00  0.00     0.001 A 
ATOM     31  C29  11 d           8.751  46.811  54.674  0.00  0.00     0.007 A 
ENDBRANCH  25  26
ENDBRANCH  24  25
ENDBRANCH  21  24
BRANCH  18  32
ATOM     32  C17  11 d           5.111  41.559  50.330  0.00  0.00     0.292 C 
ATOM     33  O3   11 d           6.335  41.321  50.519  0.00  0.00    -0.259 OA
BRANCH  32  34
ATOM     34  O4   11 d           4.363  40.811  49.363  0.00  0.00    -0.323 OA
ATOM     35  C18  11 d           4.368  41.399  48.037  0.00  0.00     0.213 C 
ENDBRANCH  32  34
ENDBRANCH  18  32
TORSDOF 5
ENDMDL
MODEL 5
REMARK VINA RESULT:      -8.8      2.342      9.228
REMARK  5 active torsions:
REMARK  status: ('A' for Active; 'I' for Inactive)
REMARK    1  A    between atoms: C16_18  and  C17_19 
REMARK    2  A    between atoms: C17_19  and  O4_21 
REMARK    3  A    between atoms: N1_25  and  C22_28 
REMARK    4  A    between atoms: C22_28  and  C23_29 
REMARK    5  A    between atoms: C23_29  and  C24_30 
ROOT
ATOM      1  C1   11 d           3.691  44.696  52.525  0.00  0.00     0.156 A 
ATOM      2  C2   11 d           3.019  45.736  53.132  0.00  0.00     0.060 A 
ATOM      3  C3   11 d           3.767  46.796  53.668  0.00  0.00     0.196 A 
ATOM      4  C4   11 d           5.180  46.734  53.600  0.00  0.00     0.049 A 
ATOM      5  C5   11 d           5.770  45.596  52.982  0.00  0.00     0.091 A 
ATOM      6  O1   11 d           5.011  44.641  52.468  0.00  0.00    -0.303 OA
ATOM      7  C6   11 d           7.163  45.477  52.925  0.00  0.00     0.045 A 
ATOM      8  C7   11 d           7.998  46.465  53.485  0.00  0.00    -0.053 A 
ATOM      9  C8   11 d           7.417  47.637  54.039  0.00  0.00    -0.055 A 
ATOM     10  C9   11 d           6.013  47.743  54.123  0.00  0.00     0.025 A 
ATOM     11  C10  11 d           8.256  48.703  54.705  0.00  0.00     0.049 C 
ATOM     12  C11  11 d           9.492  46.314  53.321  0.00  0.00     0.049 C 
ATOM     13  O2   11 d           3.181  47.776  54.196  0.00  0.00    -0.287 OA
ATOM     14  C12  11 d           1.519  45.526  53.111  0.00  0.00     0.161 A 
ATOM     15  C13  11 d           0.851  45.397  54.482  0.00  0.00    -0.030 A 
ATOM     16  C14  11 d          -0.553  45.264  54.551  0.00  0.00     0.011 A 
ATOM     17  C15  11 d          -1.209  45.091  55.779  0.00  0.00     0.018 A 
ATOM     18  C16  11 d          -0.478  45.048  56.982  0.00  0.00     0.039 A 
ATOM     19  C19  11 d           0.917  45.224  56.929  0.00  0.00     0.018 A 
ATOM     20  C20  11 d           1.571  45.404  55.701  0.00  0.00     0.011 A 
ATOM     21  N1   11 d           1.398  44.256  52.293  0.00  0.00    -0.333 N 
ATOM     22  C21  11 d           2.705  43.751  52.042  0.00  0.00     0.279 A 
ATOM     23  O5   11 d           2.981  42.630  51.488  0.00  0.00    -0.265 OA
ENDROOT
BRANCH  21  24
ATOM     24  C22  11 d           0.088  43.674  51.840  0.00  0.00     0.132 C 
BRANCH  24  25
ATOM     25  C23  11 d          -0.256  42.270  52.364  0.00  0.00     0.058 C 
BRANCH  25  26
ATOM     26  C24  11 d          -1.438  42.157  53.312  0.00  0.00    -0.057 A 
ATOM     27  C25  11 d          -1.212  41.565  54.574  0.00  0.00     0.007 A 
ATOM     28  C26  11 d          -2.239  41.480  55.524  0.00  0.00     0.001 A 
ATOM     29  C27  11 d          -3.506  42.003  55.235  0.00  0.00     0.000 A 
ATOM     30  C28  11 d          -3.742  42.618  54.000  0.00  0.00     0.001 A 
ATOM     31  C29  11 d          -2.716  42.706  53.047  0.00  0.00     0.007 A 
ENDBRANCH  25  26
ENDBRANCH  24  25
ENDBRANCH  21  24
BRANCH  18  32
ATOM     32  C17  11 d          -1.155  44.794  58.284  0.00  0.00     0.292 C 
ATOM     33  O3   11 d          -0.512  44.920  59.362  0.00  0.00    -0.259 OA
BRANCH  32  34
ATOM     34  O4   11 d          -2.522  44.363  58.296  0.00  0.00    -0.323 OA
ATOM     35  C18  11 d          -3.034  44.078  59.623  0.00  0.00     0.213 C 
ENDBRANCH  32  34
ENDBRANCH  18  32
TORSDOF 5
ENDMDL
MODEL 6
REMARK VINA RESULT:      -8.6      3.971      6.578
REMARK  5 active torsions:
REMARK  status: ('A' for Active; 'I' for Inactive)
REMARK    1  A    between atoms: C16_18  and  C17_19 
REMARK    2  A    between atoms: C17_19  and  O4_21 
REMARK    3  A    between atoms: N1_25  and  C22_28 
REMARK    4  A    between atoms: C22_28  and  C23_29 
REMARK    5  A    between atoms: C23_29  and  C24_30 
ROOT
ATOM      1  C1   11 d           6.671  43.108  49.228  0.00  0.00     0.156 A 
ATOM      2  C2   11 d           5.859  42.817  50.304  0.00  0.00     0.060 A 
ATOM      3  C3   11 d           4.730  42.011  50.094  0.00  0.00     0.196 A 
ATOM      4  C4   11 d           4.448  41.564  48.780  0.00  0.00     0.049 A 
ATOM      5  C5   11 d           5.334  41.954  47.738  0.00  0.00     0.091 A 
ATOM      6  O1   11 d           6.401  42.692  48.003  0.00  0.00    -0.303 OA
ATOM      7  C6   11 d           5.074  41.563  46.419  0.00  0.00     0.045 A 
ATOM      8  C7   11 d           3.934  40.798  46.101  0.00  0.00    -0.053 A 
ATOM      9  C8   11 d           3.084  40.346  47.147  0.00  0.00    -0.055 A 
ATOM     10  C9   11 d           3.331  40.763  48.471  0.00  0.00     0.025 A 
ATOM     11  C10  11 d           1.818  39.572  46.864  0.00  0.00     0.049 C 
ATOM     12  C11  11 d           3.753  40.346  44.672  0.00  0.00     0.049 C 
ATOM     13  O2   11 d           3.990  41.699  51.063  0.00  0.00    -0.287 OA
ATOM     14  C12  11 d           6.362  43.462  51.580  0.00  0.00     0.161 A 
ATOM     15  C13  11 d           5.423  44.491  52.215  0.00  0.00    -0.030 A 
ATOM     16  C14  11 d           5.789  45.089  53.440  0.00  0.00     0.011 A 
ATOM     17  C15  11 d           4.988  46.074  54.037  0.00  0.00     0.018 A 
ATOM     18  C16  11 d           3.789  46.491  53.427  0.00  0.00     0.039 A 
ATOM     19  C19  11 d           3.393  45.869  52.228  0.00  0.00     0.018 A 
ATOM     20  C20  11 d           4.190  44.879  51.636  0.00  0.00     0.011 A 
ATOM     21  N1   11 d           7.663  44.085  51.117  0.00  0.00    -0.333 N 
ATOM     22  C21  11 d           7.765  43.930  49.705  0.00  0.00     0.279 A 
ATOM     23  O5   11 d           8.671  44.440  48.958  0.00  0.00    -0.265 OA
ENDROOT
BRANCH  21  24
ATOM     24  C22  11 d           8.653  44.740  52.040  0.00  0.00     0.132 C 
BRANCH  24  25
ATOM     25  C23  11 d           8.837  46.257  51.883  0.00  0.00     0.058 C 
BRANCH  25  26
ATOM     26  C24  11 d           8.822  47.091  53.153  0.00  0.00    -0.057 A 
ATOM     27  C25  11 d           7.908  48.165  53.222  0.00  0.00     0.007 A 
ATOM     28  C26  11 d           7.795  48.941  54.384  0.00  0.00     0.001 A 
ATOM     29  C27  11 d           8.581  48.643  55.505  0.00  0.00     0.000 A 
ATOM     30  C28  11 d           9.474  47.565  55.465  0.00  0.00     0.001 A 
ATOM     31  C29  11 d           9.589  46.786  54.304  0.00  0.00     0.007 A 
ENDBRANCH  25  26
ENDBRANCH  24  25
ENDBRANCH  21  24
BRANCH  18  32
ATOM     32  C17  11 d           2.967  47.585  54.014  0.00  0.00     0.292 C 
ATOM     33  O3   11 d           1.708  47.508  53.990  0.00  0.00    -0.259 OA
BRANCH  32  34
ATOM     34  O4   11 d           3.617  48.740  54.562  0.00  0.00    -0.323 OA
ATOM     35  C18  11 d           2.916  49.327  55.687  0.00  0.00     0.213 C 
ENDBRANCH  32  34
ENDBRANCH  18  32
TORSDOF 5
ENDMDL
MODEL 7
REMARK VINA RESULT:      -8.6      2.023      2.502
REMARK  5 active torsions:
REMARK  status: ('A' for Active; 'I' for Inactive)
REMARK    1  A    between atoms: C16_18  and  C17_19 
REMARK    2  A    between atoms: C17_19  and  O4_21 
REMARK    3  A    between atoms: N1_25  and  C22_28 
REMARK    4  A    between atoms: C22_28  and  C23_29 
REMARK    5  A    between atoms: C23_29  and  C24_30 
ROOT
ATOM      1  C1   11 d           0.191  46.054  55.849  0.00  0.00     0.156 A 
ATOM      2  C2   11 d           0.167  45.763  54.501  0.00  0.00     0.060 A 
ATOM      3  C3   11 d          -0.768  44.827  54.034  0.00  0.00     0.196 A 
ATOM      4  C4   11 d          -1.619  44.189  54.969  0.00  0.00     0.049 A 
ATOM      5  C5   11 d          -1.483  44.539  56.342  0.00  0.00     0.091 A 
ATOM      6  O1   11 d          -0.602  45.453  56.719  0.00  0.00    -0.303 OA
ATOM      7  C6   11 d          -2.279  43.908  57.304  0.00  0.00     0.045 A 
ATOM      8  C7   11 d          -3.209  42.914  56.938  0.00  0.00    -0.053 A 
ATOM      9  C8   11 d          -3.399  42.611  55.562  0.00  0.00    -0.055 A 
ATOM     10  C9   11 d          -2.577  43.226  54.596  0.00  0.00     0.025 A 
ATOM     11  C10  11 d          -4.338  41.517  55.112  0.00  0.00     0.049 C 
ATOM     12  C11  11 d          -4.090  42.328  58.015  0.00  0.00     0.049 C 
ATOM     13  O2   11 d          -0.838  44.567  52.805  0.00  0.00    -0.287 OA
ATOM     14  C12  11 d           1.214  46.547  53.737  0.00  0.00     0.161 A 
ATOM     15  C13  11 d           2.294  45.709  53.047  0.00  0.00    -0.030 A 
ATOM     16  C14  11 d           3.268  46.360  52.260  0.00  0.00     0.011 A 
ATOM     17  C15  11 d           4.308  45.643  51.649  0.00  0.00     0.018 A 
ATOM     18  C16  11 d           4.405  44.247  51.805  0.00  0.00     0.039 A 
ATOM     19  C19  11 d           3.413  43.583  52.550  0.00  0.00     0.018 A 
ATOM     20  C20  11 d           2.369  44.299  53.154  0.00  0.00     0.011 A 
ATOM     21  N1   11 d           1.786  47.436  54.822  0.00  0.00    -0.333 N 
ATOM     22  C21  11 d           1.218  47.052  56.070  0.00  0.00     0.279 A 
ATOM     23  O5   11 d           1.560  47.502  57.219  0.00  0.00    -0.265 OA
ENDROOT
BRANCH  21  24
ATOM     24  C22  11 d           2.781  48.533  54.568  0.00  0.00     0.132 C 
BRANCH  24  25
ATOM     25  C23  11 d           4.057  48.515  55.424  0.00  0.00     0.058 C 
BRANCH  25  26
ATOM     26  C24  11 d           5.164  47.567  54.995  0.00  0.00    -0.057 A 
ATOM     27  C25  11 d           5.069  46.219  55.405  0.00  0.00     0.007 A 
ATOM     28  C26  11 d           6.021  45.273  54.997  0.00  0.00     0.001 A 
ATOM     29  C27  11 d           7.074  45.656  54.157  0.00  0.00     0.000 A 
ATOM     30  C28  11 d           7.170  46.983  53.719  0.00  0.00     0.001 A 
ATOM     31  C29  11 d           6.218  47.931  54.124  0.00  0.00     0.007 A 
ENDBRANCH  25  26
ENDBRANCH  24  25
ENDBRANCH  21  24
BRANCH  18  32
ATOM     32  C17  11 d           5.543  43.485  51.220  0.00  0.00     0.292 C 
ATOM     33  O3   11 d           5.381  42.284  50.867  0.00  0.00    -0.259 OA
BRANCH  32  34
ATOM     34  O4   11 d           6.828  44.111  51.107  0.00  0.00    -0.323 OA
ATOM     35  C18  11 d           7.228  44.384  49.740  0.00  0.00     0.213 C 
ENDBRANCH  32  34
ENDBRANCH  18  32
TORSDOF 5
ENDMDL
MODEL 8
REMARK VINA RESULT:      -8.2      3.249      8.227
REMARK  5 active torsions:
REMARK  status: ('A' for Active; 'I' for Inactive)
REMARK    1  A    between atoms: C16_18  and  C17_19 
REMARK    2  A    between atoms: C17_19  and  O4_21 
REMARK    3  A    between atoms: N1_25  and  C22_28 
REMARK    4  A    between atoms: C22_28  and  C23_29 
REMARK    5  A    between atoms: C23_29  and  C24_30 
ROOT
ATOM      1  C1   11 d           2.821  46.579  55.592  0.00  0.00     0.156 A 
ATOM      2  C2   11 d           2.921  45.250  55.235  0.00  0.00     0.060 A 
ATOM      3  C3   11 d           4.071  44.823  54.555  0.00  0.00     0.196 A 
ATOM      4  C4   11 d           5.062  45.779  54.225  0.00  0.00     0.049 A 
ATOM      5  C5   11 d           4.840  47.131  54.610  0.00  0.00     0.091 A 
ATOM      6  O1   11 d           3.747  47.469  55.277  0.00  0.00    -0.303 OA
ATOM      7  C6   11 d           5.776  48.115  54.274  0.00  0.00     0.045 A 
ATOM      8  C7   11 d           6.937  47.791  53.543  0.00  0.00    -0.053 A 
ATOM      9  C8   11 d           7.200  46.433  53.218  0.00  0.00    -0.055 A 
ATOM     10  C9   11 d           6.242  45.446  53.532  0.00  0.00     0.025 A 
ATOM     11  C10  11 d           8.396  46.030  52.387  0.00  0.00     0.049 C 
ATOM     12  C11  11 d           7.944  48.885  53.279  0.00  0.00     0.049 C 
ATOM     13  O2   11 d           4.207  43.610  54.249  0.00  0.00    -0.287 OA
ATOM     14  C12  11 d           1.702  44.460  55.664  0.00  0.00     0.161 A 
ATOM     15  C13  11 d           0.884  43.839  54.529  0.00  0.00    -0.030 A 
ATOM     16  C14  11 d          -0.230  43.033  54.847  0.00  0.00     0.011 A 
ATOM     17  C15  11 d          -1.042  42.483  53.843  0.00  0.00     0.018 A 
ATOM     18  C16  11 d          -0.762  42.722  52.484  0.00  0.00     0.039 A 
ATOM     19  C19  11 d           0.372  43.487  52.155  0.00  0.00     0.018 A 
ATOM     20  C20  11 d           1.187  44.030  53.159  0.00  0.00     0.011 A 
ATOM     21  N1   11 d           0.915  45.501  56.433  0.00  0.00    -0.333 N 
ATOM     22  C21  11 d           1.566  46.760  56.291  0.00  0.00     0.279 A 
ATOM     23  O5   11 d           1.117  47.886  56.703  0.00  0.00    -0.265 OA
ENDROOT
BRANCH  21  24
ATOM     24  C22  11 d          -0.338  45.200  57.209  0.00  0.00     0.132 C 
BRANCH  24  25
ATOM     25  C23  11 d          -0.197  45.128  58.738  0.00  0.00     0.058 C 
BRANCH  25  26
ATOM     26  C24  11 d          -0.491  46.396  59.520  0.00  0.00    -0.057 A 
ATOM     27  C25  11 d          -1.811  46.898  59.483  0.00  0.00     0.007 A 
ATOM     28  C26  11 d          -2.173  48.030  60.227  0.00  0.00     0.001 A 
ATOM     29  C27  11 d          -1.224  48.668  61.037  0.00  0.00     0.000 A 
ATOM     30  C28  11 d           0.082  48.169  61.108  0.00  0.00     0.001 A 
ATOM     31  C29  11 d           0.447  47.036  60.365  0.00  0.00     0.007 A 
ENDBRANCH  25  26
ENDBRANCH  24  25
ENDBRANCH  21  24
BRANCH  18  32
ATOM     32  C17  11 d          -1.657  42.203  51.413  0.00  0.00     0.292 C 
ATOM     33  O3   11 d          -2.404  41.212  51.643  0.00  0.00    -0.259 OA
BRANCH  32  34
ATOM     34  O4   11 d          -1.625  42.807  50.113  0.00  0.00    -0.323 OA
ATOM     35  C18  11 d          -2.692  43.764  49.887  0.00  0.00     0.213 C 
ENDBRANCH  32  34
ENDBRANCH  18  32
TORSDOF 5
ENDMDL
MODEL 9
REMARK VINA RESULT:      -8.1      2.597      8.969
REMARK  5 active torsions:
REMARK  status: ('A' for Active; 'I' for Inactive)
REMARK    1  A    between atoms: C16_18  and  C17_19 
REMARK    2  A    between atoms: C17_19  and  O4_21 
REMARK    3  A    between atoms: N1_25  and  C22_28 
REMARK    4  A    between atoms: C22_28  and  C23_29 
REMARK    5  A    between atoms: C23_29  and  C24_30 
ROOT
ATOM      1  C1   11 d           2.219  43.886  51.880  0.00  0.00     0.156 A 
ATOM      2  C2   11 d           2.123  45.072  52.578  0.00  0.00     0.060 A 
ATOM      3  C3   11 d           3.283  45.839  52.760  0.00  0.00     0.196 A 
ATOM      4  C4   11 d           4.512  45.346  52.256  0.00  0.00     0.049 A 
ATOM      5  C5   11 d           4.502  44.094  51.583  0.00  0.00     0.091 A 
ATOM      6  O1   11 d           3.369  43.428  51.416  0.00  0.00    -0.303 OA
ATOM      7  C6   11 d           5.699  43.552  51.100  0.00  0.00     0.045 A 
ATOM      8  C7   11 d           6.924  44.224  51.283  0.00  0.00    -0.053 A 
ATOM      9  C8   11 d           6.931  45.508  51.891  0.00  0.00    -0.055 A 
ATOM     10  C9   11 d           5.729  46.040  52.404  0.00  0.00     0.025 A 
ATOM     11  C10  11 d           8.217  46.251  52.167  0.00  0.00     0.049 C 
ATOM     12  C11  11 d           8.167  43.622  50.671  0.00  0.00     0.049 C 
ATOM     13  O2   11 d           3.220  46.943  53.361  0.00  0.00    -0.287 OA
ATOM     14  C12  11 d           0.707  45.335  53.049  0.00  0.00     0.161 A 
ATOM     15  C13  11 d           0.515  45.393  54.566  0.00  0.00    -0.030 A 
ATOM     16  C14  11 d          -0.762  45.699  55.084  0.00  0.00     0.011 A 
ATOM     17  C15  11 d          -1.003  45.714  56.466  0.00  0.00     0.018 A 
ATOM     18  C16  11 d           0.032  45.426  57.377  0.00  0.00     0.039 A 
ATOM     19  C19  11 d           1.319  45.164  56.873  0.00  0.00     0.018 A 
ATOM     20  C20  11 d           1.560  45.157  55.491  0.00  0.00     0.011 A 
ATOM     21  N1   11 d          -0.045  44.179  52.420  0.00  0.00    -0.333 N 
ATOM     22  C21  11 d           0.896  43.300  51.814  0.00  0.00     0.279 A 
ATOM     23  O5   11 d           0.631  42.159  51.297  0.00  0.00    -0.265 OA
ENDROOT
BRANCH  21  24
ATOM     24  C22  11 d          -1.542  44.037  52.454  0.00  0.00     0.132 C 
BRANCH  24  25
ATOM     25  C23  11 d          -2.095  42.763  53.112  0.00  0.00     0.058 C 
BRANCH  25  26
ATOM     26  C24  11 d          -2.788  42.924  54.454  0.00  0.00    -0.057 A 
ATOM     27  C25  11 d          -3.948  43.729  54.502  0.00  0.00     0.007 A 
ATOM     28  C26  11 d          -4.674  43.876  55.692  0.00  0.00     0.001 A 
ATOM     29  C27  11 d          -4.264  43.205  56.851  0.00  0.00     0.000 A 
ATOM     30  C28  11 d          -3.133  42.381  56.817  0.00  0.00     0.001 A 
ATOM     31  C29  11 d          -2.404  42.231  55.627  0.00  0.00     0.007 A 
ENDBRANCH  25  26
ENDBRANCH  24  25
ENDBRANCH  21  24
BRANCH  18  32
ATOM     32  C17  11 d          -0.228  45.370  58.843  0.00  0.00     0.292 C 
ATOM     33  O3   11 d          -1.014  44.500  59.309  0.00  0.00    -0.259 OA
BRANCH  32  34
ATOM     34  O4   11 d           0.383  46.338  59.705  0.00  0.00    -0.323 OA
ATOM     35  C18  11 d          -0.528  47.368  60.168  0.00  0.00     0.213 C 
ENDBRANCH  32  34
ENDBRANCH  18  32
TORSDOF 5
ENDMDL
MODEL 10
REMARK VINA RESULT:      -8.0      3.556      6.731
REMARK  5 active torsions:
REMARK  status: ('A' for Active; 'I' for Inactive)
REMARK    1  A    between atoms: C16_18  and  C17_19 
REMARK    2  A    between atoms: C17_19  and  O4_21 
REMARK    3  A    between atoms: N1_25  and  C22_28 
REMARK    4  A    between atoms: C22_28  and  C23_29 
REMARK    5  A    between atoms: C23_29  and  C24_30 
ROOT
ATOM      1  C1   11 d           5.646  42.547  48.862  0.00  0.00     0.156 A 
ATOM      2  C2   11 d           4.814  41.980  49.805  0.00  0.00     0.060 A 
ATOM      3  C3   11 d           3.893  41.008  49.388  0.00  0.00     0.196 A 
ATOM      4  C4   11 d           3.827  40.678  48.012  0.00  0.00     0.049 A 
ATOM      5  C5   11 d           4.708  41.350  47.121  0.00  0.00     0.091 A 
ATOM      6  O1   11 d           5.577  42.239  47.578  0.00  0.00    -0.303 OA
ATOM      7  C6   11 d           4.653  41.081  45.749  0.00  0.00     0.045 A 
ATOM      8  C7   11 d           3.723  40.159  45.229  0.00  0.00    -0.053 A 
ATOM      9  C8   11 d           2.888  39.431  46.120  0.00  0.00    -0.055 A 
ATOM     10  C9   11 d           2.925  39.725  47.499  0.00  0.00     0.025 A 
ATOM     11  C10  11 d           1.834  38.473  45.619  0.00  0.00     0.049 C 
ATOM     12  C11  11 d           3.767  39.857  43.749  0.00  0.00     0.049 C 
ATOM     13  O2   11 d           3.145  40.447  50.230  0.00  0.00    -0.287 OA
ATOM     14  C12  11 d           5.059  42.549  51.187  0.00  0.00     0.161 A 
ATOM     15  C13  11 d           3.879  43.298  51.812  0.00  0.00    -0.030 A 
ATOM     16  C14  11 d           4.005  43.802  53.125  0.00  0.00     0.011 A 
ATOM     17  C15  11 d           2.973  44.539  53.724  0.00  0.00     0.018 A 
ATOM     18  C16  11 d           1.776  44.794  53.027  0.00  0.00     0.039 A 
ATOM     19  C19  11 d           1.623  44.258  51.736  0.00  0.00     0.018 A 
ATOM     20  C20  11 d           2.653  43.515  51.140  0.00  0.00     0.011 A 
ATOM     21  N1   11 d           6.247  43.457  50.940  0.00  0.00    -0.333 N 
ATOM     22  C21  11 d           6.506  43.496  49.540  0.00  0.00     0.279 A 
ATOM     23  O5   11 d           7.356  44.255  48.956  0.00  0.00    -0.265 OA
ENDROOT
BRANCH  21  24
ATOM     24  C22  11 d           6.997  44.170  52.030  0.00  0.00     0.132 C 
BRANCH  24  25
ATOM     25  C23  11 d           6.906  45.704  52.036  0.00  0.00     0.058 C 
BRANCH  25  26
ATOM     26  C24  11 d           7.712  46.440  53.092  0.00  0.00    -0.057 A 
ATOM     27  C25  11 d           7.009  47.007  54.178  0.00  0.00     0.007 A 
ATOM     28  C26  11 d           7.690  47.650  55.221  0.00  0.00     0.001 A 
ATOM     29  C27  11 d           9.089  47.720  55.206  0.00  0.00     0.000 A 
ATOM     30  C28  11 d           9.806  47.140  54.152  0.00  0.00     0.001 A 
ATOM     31  C29  11 d           9.127  46.495  53.107  0.00  0.00     0.007 A 
ENDBRANCH  25  26
ENDBRANCH  24  25
ENDBRANCH  21  24
BRANCH  18  32
ATOM     32  C17  11 d           0.702  45.634  53.626  0.00  0.00     0.292 C 
ATOM     33  O3   11 d          -0.509  45.329  53.445  0.00  0.00    -0.259 OA
BRANCH  32  34
ATOM     34  O4   11 d           1.055  46.811  54.364  0.00  0.00    -0.323 OA
ATOM     35  C18  11 d           0.678  46.759  55.764  0.00  0.00     0.213 C 
ENDBRANCH  32  34
ENDBRANCH  18  32
TORSDOF 5
ENDMDL
