MODEL 1
REMARK VINA RESULT:      -8.7      0.000      0.000
REMARK  7 active torsions:
REMARK  status: ('A' for Active; 'I' for Inactive)
REMARK    1  A    between atoms: C1_1  and  O2_3 
REMARK    2  A    between atoms: C1_1  and  C12_14 
REMARK    3  A    between atoms: O2_3  and  C2_4 
REMARK    4  A    between atoms: C5_7  and  C6_8 
REMARK    5  A    between atoms: C12_14  and  C13_15 
REMARK    6  A    between atoms: C13_15  and  C14_16 
REMARK       I    between atoms: C14_16  and  N1_18 
REMARK    7  A    between atoms: N1_18  and  C15_19 
ROOT
ATOM      1  C1   11 d         -11.820 206.509 117.186  0.00  0.00     0.259 C 
ATOM      2  O1   11 d         -11.731 205.404 117.783  0.00  0.00    -0.265 OA
ENDROOT
BRANCH   1   3
ATOM      3  O2   11 d         -12.672 206.651 116.054  0.00  0.00    -0.316 OA
BRANCH   3   4
ATOM      4  C2   11 d         -14.062 206.925 116.394  0.00  0.00     0.132 C 
ATOM      5  C3   11 d         -14.882 205.664 116.089  0.00  0.00     0.033 C 
ATOM      6  C4   11 d         -14.933 205.357 114.583  0.00  0.00     0.008 C 
ATOM      7  C5   11 d         -15.482 206.541 113.737  0.00  0.00    -0.007 C 
ATOM      8  C10  11 d         -14.692 207.832 114.093  0.00  0.00     0.008 C 
ATOM      9  C11  11 d         -14.651 208.109 115.602  0.00  0.00     0.033 C 
BRANCH   7  10
ATOM     10  C6   11 d         -15.593 206.253 112.188  0.00  0.00    -0.048 C 
ATOM     11  C7   11 d         -15.060 207.459 111.370  0.00  0.00     0.015 C 
ATOM     12  C8   11 d         -17.073 206.058 111.768  0.00  0.00     0.015 C 
ATOM     13  C9   11 d         -14.806 204.996 111.745  0.00  0.00     0.015 C 
ENDBRANCH   7  10
ENDBRANCH   3   4
ENDBRANCH   1   3
BRANCH   1  14
ATOM     14  C12  11 d         -11.178 207.739 117.762  0.00  0.00     0.120 C 
BRANCH  14  15
ATOM     15  C13  11 d         -10.150 208.387 116.824  0.00  0.00     0.113 C 
BRANCH  15  16
ATOM     16  C14  11 d         -10.615 208.556 115.398  0.00  0.00     0.222 C 
ATOM     17  O3   11 d         -11.456 209.479 115.122  0.00  0.00    -0.273 OA
ATOM     18  N1   11 d         -10.103 207.668 114.396  0.00  0.00    -0.327 N 
ATOM     19  H24  11 d          -9.406 206.938 114.760  0.00  0.00     0.169 HD
BRANCH  18  20
ATOM     20  C15  11 d         -10.417 207.648 112.941  0.00  0.00     0.040 A 
ATOM     21  C16  11 d          -9.651 208.456 112.046  0.00  0.00    -0.035 A 
ATOM     22  C17  11 d          -9.949 208.461 110.665  0.00  0.00     0.009 A 
ATOM     23  C21  11 d          -8.501 209.315 112.516  0.00  0.00     0.050 C 
ATOM     24  C18  11 d         -10.989 207.681 110.156  0.00  0.00     0.001 A 
ATOM     25  C19  11 d         -11.744 206.882 111.016  0.00  0.00     0.002 A 
ATOM     26  C20  11 d         -11.462 206.863 112.388  0.00  0.00     0.030 A 
ENDBRANCH  18  20
ENDBRANCH  15  16
ENDBRANCH  14  15
ENDBRANCH   1  14
TORSDOF 7
ENDMDL
MODEL 2
REMARK VINA RESULT:      -8.5      1.418      2.649
REMARK  7 active torsions:
REMARK  status: ('A' for Active; 'I' for Inactive)
REMARK    1  A    between atoms: C1_1  and  O2_3 
REMARK    2  A    between atoms: C1_1  and  C12_14 
REMARK    3  A    between atoms: O2_3  and  C2_4 
REMARK    4  A    between atoms: C5_7  and  C6_8 
REMARK    5  A    between atoms: C12_14  and  C13_15 
REMARK    6  A    between atoms: C13_15  and  C14_16 
REMARK       I    between atoms: C14_16  and  N1_18 
REMARK    7  A    between atoms: N1_18  and  C15_19 
ROOT
ATOM      1  C1   11 d         -12.044 206.387 116.963  0.00  0.00     0.259 C 
ATOM      2  O1   11 d         -11.963 205.131 116.964  0.00  0.00    -0.265 OA
ENDROOT
BRANCH   1   3
ATOM      3  O2   11 d         -12.537 207.078 115.820  0.00  0.00    -0.316 OA
BRANCH   3   4
ATOM      4  C2   11 d         -13.965 207.361 115.873  0.00  0.00     0.132 C 
ATOM      5  C3   11 d         -14.717 206.061 115.556  0.00  0.00     0.033 C 
ATOM      6  C4   11 d         -14.494 205.602 114.105  0.00  0.00     0.008 C 
ATOM      7  C5   11 d         -14.880 206.685 113.057  0.00  0.00    -0.007 C 
ATOM      8  C10  11 d         -14.166 208.019 113.415  0.00  0.00     0.008 C 
ATOM      9  C11  11 d         -14.399 208.448 114.870  0.00  0.00     0.033 C 
BRANCH   7  10
ATOM     10  C6   11 d         -14.708 206.239 111.551  0.00  0.00    -0.048 C 
ATOM     11  C7   11 d         -14.698 204.692 111.438  0.00  0.00     0.015 C 
ATOM     12  C8   11 d         -13.352 206.730 110.982  0.00  0.00     0.015 C 
ATOM     13  C9   11 d         -15.830 206.775 110.627  0.00  0.00     0.015 C 
ENDBRANCH   7  10
ENDBRANCH   3   4
ENDBRANCH   1   3
BRANCH   1  14
ATOM     14  C12  11 d         -11.798 207.167 118.223  0.00  0.00     0.120 C 
BRANCH  14  15
ATOM     15  C13  11 d         -11.006 208.462 117.996  0.00  0.00     0.113 C 
BRANCH  15  16
ATOM     16  C14  11 d          -9.843 208.330 117.043  0.00  0.00     0.222 C 
ATOM     17  O3   11 d          -8.833 207.624 117.387  0.00  0.00    -0.273 OA
ATOM     18  N1   11 d          -9.904 209.009 115.783  0.00  0.00    -0.327 N 
ATOM     19  H24  11 d         -10.804 209.568 115.620  0.00  0.00     0.169 HD
BRANCH  18  20
ATOM     20  C15  11 d          -8.884 209.023 114.698  0.00  0.00     0.040 A 
ATOM     21  C16  11 d          -9.198 208.437 113.432  0.00  0.00    -0.035 A 
ATOM     22  C17  11 d          -8.235 208.427 112.399  0.00  0.00     0.009 A 
ATOM     23  C21  11 d         -10.548 207.827 113.136  0.00  0.00     0.050 C 
ATOM     24  C18  11 d          -6.970 208.985 112.596  0.00  0.00     0.001 A 
ATOM     25  C19  11 d          -6.650 209.565 113.823  0.00  0.00     0.002 A 
ATOM     26  C20  11 d          -7.592 209.586 114.860  0.00  0.00     0.030 A 
ENDBRANCH  18  20
ENDBRANCH  15  16
ENDBRANCH  14  15
ENDBRANCH   1  14
TORSDOF 7
ENDMDL
MODEL 3
REMARK VINA RESULT:      -8.2      4.449      8.073
REMARK  7 active torsions:
REMARK  status: ('A' for Active; 'I' for Inactive)
REMARK    1  A    between atoms: C1_1  and  O2_3 
REMARK    2  A    between atoms: C1_1  and  C12_14 
REMARK    3  A    between atoms: O2_3  and  C2_4 
REMARK    4  A    between atoms: C5_7  and  C6_8 
REMARK    5  A    between atoms: C12_14  and  C13_15 
REMARK    6  A    between atoms: C13_15  and  C14_16 
REMARK       I    between atoms: C14_16  and  N1_18 
REMARK    7  A    between atoms: N1_18  and  C15_19 
ROOT
ATOM      1  C1   11 d         -13.864 205.219 116.855  0.00  0.00     0.259 C 
ATOM      2  O1   11 d         -13.401 205.631 117.950  0.00  0.00    -0.265 OA
ENDROOT
BRANCH   1   3
ATOM      3  O2   11 d         -13.243 205.584 115.626  0.00  0.00    -0.316 OA
BRANCH   3   4
ATOM      4  C2   11 d         -13.305 207.010 115.335  0.00  0.00     0.132 C 
ATOM      5  C3   11 d         -14.780 207.391 115.148  0.00  0.00     0.033 C 
ATOM      6  C4   11 d         -15.391 206.741 113.895  0.00  0.00     0.008 C 
ATOM      7  C5   11 d         -14.607 207.071 112.593  0.00  0.00    -0.007 C 
ATOM      8  C10  11 d         -13.103 206.743 112.805  0.00  0.00     0.008 C 
ATOM      9  C11  11 d         -12.522 207.398 114.065  0.00  0.00     0.033 C 
BRANCH   7  10
ATOM     10  C6   11 d         -15.226 206.459 111.274  0.00  0.00    -0.048 C 
ATOM     11  C7   11 d         -15.007 207.418 110.074  0.00  0.00     0.015 C 
ATOM     12  C8   11 d         -16.759 206.277 111.417  0.00  0.00     0.015 C 
ATOM     13  C9   11 d         -14.620 205.085 110.899  0.00  0.00     0.015 C 
ENDBRANCH   7  10
ENDBRANCH   3   4
ENDBRANCH   1   3
BRANCH   1  14
ATOM     14  C12  11 d         -14.960 204.192 116.829  0.00  0.00     0.120 C 
BRANCH  14  15
ATOM     15  C13  11 d         -14.778 203.078 117.869  0.00  0.00     0.113 C 
BRANCH  15  16
ATOM     16  C14  11 d         -16.010 202.769 118.685  0.00  0.00     0.222 C 
ATOM     17  O3   11 d         -16.341 201.549 118.875  0.00  0.00    -0.273 OA
ATOM     18  N1   11 d         -16.776 203.858 119.215  0.00  0.00    -0.327 N 
ATOM     19  H24  11 d         -16.391 204.831 118.982  0.00  0.00     0.169 HD
BRANCH  18  20
ATOM     20  C15  11 d         -18.014 203.793 120.039  0.00  0.00     0.040 A 
ATOM     21  C16  11 d         -17.920 203.916 121.460  0.00  0.00    -0.035 A 
ATOM     22  C17  11 d         -19.084 203.839 122.256  0.00  0.00     0.009 A 
ATOM     23  C21  11 d         -16.604 204.145 122.166  0.00  0.00     0.050 C 
ATOM     24  C18  11 d         -20.337 203.642 121.672  0.00  0.00     0.001 A 
ATOM     25  C19  11 d         -20.447 203.525 120.286  0.00  0.00     0.002 A 
ATOM     26  C20  11 d         -19.304 203.601 119.480  0.00  0.00     0.030 A 
ENDBRANCH  18  20
ENDBRANCH  15  16
ENDBRANCH  14  15
ENDBRANCH   1  14
TORSDOF 7
ENDMDL
MODEL 4
REMARK VINA RESULT:      -8.1      2.098      3.513
REMARK  7 active torsions:
REMARK  status: ('A' for Active; 'I' for Inactive)
REMARK    1  A    between atoms: C1_1  and  O2_3 
REMARK    2  A    between atoms: C1_1  and  C12_14 
REMARK    3  A    between atoms: O2_3  and  C2_4 
REMARK    4  A    between atoms: C5_7  and  C6_8 
REMARK    5  A    between atoms: C12_14  and  C13_15 
REMARK    6  A    between atoms: C13_15  and  C14_16 
REMARK       I    between atoms: C14_16  and  N1_18 
REMARK    7  A    between atoms: N1_18  and  C15_19 
ROOT
ATOM      1  C1   11 d         -12.585 207.019 117.109  0.00  0.00     0.259 C 
ATOM      2  O1   11 d         -13.459 207.392 117.933  0.00  0.00    -0.265 OA
ENDROOT
BRANCH   1   3
ATOM      3  O2   11 d         -12.924 206.812 115.741  0.00  0.00    -0.316 OA
BRANCH   3   4
ATOM      4  C2   11 d         -12.851 208.017 114.926  0.00  0.00     0.132 C 
ATOM      5  C3   11 d         -14.281 208.528 114.707  0.00  0.00     0.033 C 
ATOM      6  C4   11 d         -15.116 207.563 113.848  0.00  0.00     0.008 C 
ATOM      7  C5   11 d         -14.464 207.256 112.469  0.00  0.00    -0.007 C 
ATOM      8  C10  11 d         -12.995 206.798 112.689  0.00  0.00     0.008 C 
ATOM      9  C11  11 d         -12.190 207.776 113.555  0.00  0.00     0.033 C 
BRANCH   7  10
ATOM     10  C6   11 d         -15.309 206.302 111.535  0.00  0.00    -0.048 C 
ATOM     11  C7   11 d         -14.615 204.922 111.395  0.00  0.00     0.015 C 
ATOM     12  C8   11 d         -15.417 206.886 110.103  0.00  0.00     0.015 C 
ATOM     13  C9   11 d         -16.747 206.059 112.056  0.00  0.00     0.015 C 
ENDBRANCH   7  10
ENDBRANCH   3   4
ENDBRANCH   1   3
BRANCH   1  14
ATOM     14  C12  11 d         -11.137 206.965 117.506  0.00  0.00     0.120 C 
BRANCH  14  15
ATOM     15  C13  11 d         -10.451 208.338 117.506  0.00  0.00     0.113 C 
BRANCH  15  16
ATOM     16  C14  11 d          -9.048 208.342 116.948  0.00  0.00     0.222 C 
ATOM     17  O3   11 d          -8.139 207.670 117.545  0.00  0.00    -0.273 OA
ATOM     18  N1   11 d          -8.779 209.108 115.767  0.00  0.00    -0.327 N 
ATOM     19  H24  11 d          -9.629 209.625 115.366  0.00  0.00     0.169 HD
BRANCH  18  20
ATOM     20  C15  11 d          -7.484 209.258 115.047  0.00  0.00     0.040 A 
ATOM     21  C16  11 d          -7.382 208.828 113.688  0.00  0.00    -0.035 A 
ATOM     22  C17  11 d          -6.156 208.949 112.997  0.00  0.00     0.009 A 
ATOM     23  C21  11 d          -8.556 208.251 112.933  0.00  0.00     0.050 C 
ATOM     24  C18  11 d          -5.031 209.487 113.626  0.00  0.00     0.001 A 
ATOM     25  C19  11 d          -5.116 209.916 114.951  0.00  0.00     0.002 A 
ATOM     26  C20  11 d          -6.324 209.806 115.652  0.00  0.00     0.030 A 
ENDBRANCH  18  20
ENDBRANCH  15  16
ENDBRANCH  14  15
ENDBRANCH   1  14
TORSDOF 7
ENDMDL
MODEL 5
REMARK VINA RESULT:      -7.8      2.472      3.738
REMARK  7 active torsions:
REMARK  status: ('A' for Active; 'I' for Inactive)
REMARK    1  A    between atoms: C1_1  and  O2_3 
REMARK    2  A    between atoms: C1_1  and  C12_14 
REMARK    3  A    between atoms: O2_3  and  C2_4 
REMARK    4  A    between atoms: C5_7  and  C6_8 
REMARK    5  A    between atoms: C12_14  and  C13_15 
REMARK    6  A    between atoms: C13_15  and  C14_16 
REMARK       I    between atoms: C14_16  and  N1_18 
REMARK    7  A    between atoms: N1_18  and  C15_19 
ROOT
ATOM      1  C1   11 d         -11.297 207.315 116.636  0.00  0.00     0.259 C 
ATOM      2  O1   11 d         -11.254 206.777 117.773  0.00  0.00    -0.265 OA
ENDROOT
BRANCH   1   3
ATOM      3  O2   11 d         -12.216 206.850 115.652  0.00  0.00    -0.316 OA
BRANCH   3   4
ATOM      4  C2   11 d         -13.587 207.292 115.870  0.00  0.00     0.132 C 
ATOM      5  C3   11 d         -14.511 206.084 115.669  0.00  0.00     0.033 C 
ATOM      6  C4   11 d         -14.518 205.596 114.211  0.00  0.00     0.008 C 
ATOM      7  C5   11 d         -14.904 206.711 113.197  0.00  0.00    -0.007 C 
ATOM      8  C10  11 d         -14.009 207.957 113.442  0.00  0.00     0.008 C 
ATOM      9  C11  11 d         -14.015 208.416 114.907  0.00  0.00     0.033 C 
BRANCH   7  10
ATOM     10  C6   11 d         -14.966 206.242 111.689  0.00  0.00    -0.048 C 
ATOM     11  C7   11 d         -14.737 204.712 111.585  0.00  0.00     0.015 C 
ATOM     12  C8   11 d         -13.843 206.912 110.856  0.00  0.00     0.015 C 
ATOM     13  C9   11 d         -16.318 206.567 111.007  0.00  0.00     0.015 C 
ENDBRANCH   7  10
ENDBRANCH   3   4
ENDBRANCH   1   3
BRANCH   1  14
ATOM     14  C12  11 d         -10.518 208.568 116.356  0.00  0.00     0.120 C 
BRANCH  14  15
ATOM     15  C13  11 d         -10.396 208.890 114.860  0.00  0.00     0.113 C 
BRANCH  15  16
ATOM     16  C14  11 d          -8.999 209.229 114.400  0.00  0.00     0.222 C 
ATOM     17  O3   11 d          -8.824 210.228 113.622  0.00  0.00    -0.273 OA
ATOM     18  N1   11 d          -7.909 208.413 114.848  0.00  0.00    -0.327 N 
ATOM     19  H24  11 d          -8.191 207.607 115.496  0.00  0.00     0.169 HD
BRANCH  18  20
ATOM     20  C15  11 d          -6.463 208.557 114.525  0.00  0.00     0.040 A 
ATOM     21  C16  11 d          -5.556 208.989 115.542  0.00  0.00    -0.035 A 
ATOM     22  C17  11 d          -4.184 209.146 115.247  0.00  0.00     0.009 A 
ATOM     23  C21  11 d          -6.005 209.277 116.955  0.00  0.00     0.050 C 
ATOM     24  C18  11 d          -3.694 208.885 113.966  0.00  0.00     0.001 A 
ATOM     25  C19  11 d          -4.565 208.457 112.963  0.00  0.00     0.002 A 
ATOM     26  C20  11 d          -5.929 208.293 113.237  0.00  0.00     0.030 A 
ENDBRANCH  18  20
ENDBRANCH  15  16
ENDBRANCH  14  15
ENDBRANCH   1  14
TORSDOF 7
ENDMDL
MODEL 6
REMARK VINA RESULT:      -7.7      4.457      8.020
REMARK  7 active torsions:
REMARK  status: ('A' for Active; 'I' for Inactive)
REMARK    1  A    between atoms: C1_1  and  O2_3 
REMARK    2  A    between atoms: C1_1  and  C12_14 
REMARK    3  A    between atoms: O2_3  and  C2_4 
REMARK    4  A    between atoms: C5_7  and  C6_8 
REMARK    5  A    between atoms: C12_14  and  C13_15 
REMARK    6  A    between atoms: C13_15  and  C14_16 
REMARK       I    between atoms: C14_16  and  N1_18 
REMARK    7  A    between atoms: N1_18  and  C15_19 
ROOT
ATOM      1  C1   11 d         -13.169 206.324 117.340  0.00  0.00     0.259 C 
ATOM      2  O1   11 d         -12.255 207.045 117.818  0.00  0.00    -0.265 OA
ENDROOT
BRANCH   1   3
ATOM      3  O2   11 d         -13.380 206.267 115.933  0.00  0.00    -0.316 OA
BRANCH   3   4
ATOM      4  C2   11 d         -13.191 207.543 115.256  0.00  0.00     0.132 C 
ATOM      5  C3   11 d         -14.577 208.119 114.937  0.00  0.00     0.033 C 
ATOM      6  C4   11 d         -15.333 207.270 113.900  0.00  0.00     0.008 C 
ATOM      7  C5   11 d         -14.541 207.078 112.575  0.00  0.00    -0.007 C 
ATOM      8  C10  11 d         -13.115 206.553 112.904  0.00  0.00     0.008 C 
ATOM      9  C11  11 d         -12.389 207.415 113.946  0.00  0.00     0.033 C 
BRANCH   7  10
ATOM     10  C6   11 d         -15.298 206.248 111.465  0.00  0.00    -0.048 C 
ATOM     11  C7   11 d         -16.751 205.939 111.912  0.00  0.00     0.015 C 
ATOM     12  C8   11 d         -14.610 204.878 111.234  0.00  0.00     0.015 C 
ATOM     13  C9   11 d         -15.367 206.978 110.101  0.00  0.00     0.015 C 
ENDBRANCH   7  10
ENDBRANCH   3   4
ENDBRANCH   1   3
BRANCH   1  14
ATOM     14  C12  11 d         -13.931 205.374 118.220  0.00  0.00     0.120 C 
BRANCH  14  15
ATOM     15  C13  11 d         -14.078 205.866 119.666  0.00  0.00     0.113 C 
BRANCH  15  16
ATOM     16  C14  11 d         -15.133 205.147 120.473  0.00  0.00     0.222 C 
ATOM     17  O3   11 d         -14.807 204.100 121.130  0.00  0.00    -0.273 OA
ATOM     18  N1   11 d         -16.471 205.660 120.470  0.00  0.00    -0.327 N 
ATOM     19  H24  11 d         -16.610 206.543 119.878  0.00  0.00     0.169 HD
BRANCH  18  20
ATOM     20  C15  11 d         -17.661 205.121 121.184  0.00  0.00     0.040 A 
ATOM     21  C16  11 d         -18.375 204.017 120.623  0.00  0.00    -0.035 A 
ATOM     22  C17  11 d         -19.516 203.505 121.280  0.00  0.00     0.009 A 
ATOM     23  C21  11 d         -17.948 203.346 119.339  0.00  0.00     0.050 C 
ATOM     24  C18  11 d         -19.962 204.065 122.479  0.00  0.00     0.001 A 
ATOM     25  C19  11 d         -19.272 205.139 123.042  0.00  0.00     0.002 A 
ATOM     26  C20  11 d         -18.138 205.660 122.407  0.00  0.00     0.030 A 
ENDBRANCH  18  20
ENDBRANCH  15  16
ENDBRANCH  14  15
ENDBRANCH   1  14
TORSDOF 7
ENDMDL
MODEL 7
REMARK VINA RESULT:      -7.5      4.519      6.583
REMARK  7 active torsions:
REMARK  status: ('A' for Active; 'I' for Inactive)
REMARK    1  A    between atoms: C1_1  and  O2_3 
REMARK    2  A    between atoms: C1_1  and  C12_14 
REMARK    3  A    between atoms: O2_3  and  C2_4 
REMARK    4  A    between atoms: C5_7  and  C6_8 
REMARK    5  A    between atoms: C12_14  and  C13_15 
REMARK    6  A    between atoms: C13_15  and  C14_16 
REMARK       I    between atoms: C14_16  and  N1_18 
REMARK    7  A    between atoms: N1_18  and  C15_19 
ROOT
ATOM      1  C1   11 d         -14.063 205.609 119.210  0.00  0.00     0.259 C 
ATOM      2  O1   11 d         -13.139 206.057 119.939  0.00  0.00    -0.265 OA
ENDROOT
BRANCH   1   3
ATOM      3  O2   11 d         -15.292 205.181 119.787  0.00  0.00    -0.316 OA
BRANCH   3   4
ATOM      4  C2   11 d         -15.267 203.808 120.276  0.00  0.00     0.132 C 
ATOM      5  C3   11 d         -16.278 202.996 119.457  0.00  0.00     0.033 C 
ATOM      6  C4   11 d         -17.727 203.444 119.716  0.00  0.00     0.008 C 
ATOM      7  C5   11 d         -18.122 203.388 121.220  0.00  0.00    -0.007 C 
ATOM      8  C10  11 d         -17.062 204.160 122.055  0.00  0.00     0.008 C 
ATOM      9  C11  11 d         -15.627 203.697 121.770  0.00  0.00     0.033 C 
BRANCH   7  10
ATOM     10  C6   11 d         -19.617 203.799 121.528  0.00  0.00    -0.048 C 
ATOM     11  C7   11 d         -20.485 202.540 121.785  0.00  0.00     0.015 C 
ATOM     12  C8   11 d         -20.249 204.528 120.314  0.00  0.00     0.015 C 
ATOM     13  C9   11 d         -19.750 204.728 122.759  0.00  0.00     0.015 C 
ENDBRANCH   7  10
ENDBRANCH   3   4
ENDBRANCH   1   3
BRANCH   1  14
ATOM     14  C12  11 d         -13.960 205.691 117.714  0.00  0.00     0.120 C 
BRANCH  14  15
ATOM     15  C13  11 d         -13.740 207.118 117.193  0.00  0.00     0.113 C 
BRANCH  15  16
ATOM     16  C14  11 d         -14.331 207.391 115.831  0.00  0.00     0.222 C 
ATOM     17  O3   11 d         -14.765 208.563 115.565  0.00  0.00    -0.273 OA
ATOM     18  N1   11 d         -14.391 206.321 114.880  0.00  0.00    -0.327 N 
ATOM     19  H24  11 d         -13.995 205.388 115.230  0.00  0.00     0.169 HD
BRANCH  18  20
ATOM     20  C15  11 d         -14.927 206.358 113.491  0.00  0.00     0.040 A 
ATOM     21  C16  11 d         -14.063 206.727 112.414  0.00  0.00    -0.035 A 
ATOM     22  C17  11 d         -14.561 206.784 111.094  0.00  0.00     0.009 A 
ATOM     23  C21  11 d         -12.603 207.052 112.626  0.00  0.00     0.050 C 
ATOM     24  C18  11 d         -15.897 206.482 110.820  0.00  0.00     0.001 A 
ATOM     25  C19  11 d         -16.752 206.115 111.860  0.00  0.00     0.002 A 
ATOM     26  C20  11 d         -16.276 206.052 113.176  0.00  0.00     0.030 A 
ENDBRANCH  18  20
ENDBRANCH  15  16
ENDBRANCH  14  15
ENDBRANCH   1  14
TORSDOF 7
ENDMDL
MODEL 8
REMARK VINA RESULT:      -7.4      3.118      4.667
REMARK  7 active torsions:
REMARK  status: ('A' for Active; 'I' for Inactive)
REMARK    1  A    between atoms: C1_1  and  O2_3 
REMARK    2  A    between atoms: C1_1  and  C12_14 
REMARK    3  A    between atoms: O2_3  and  C2_4 
REMARK    4  A    between atoms: C5_7  and  C6_8 
REMARK    5  A    between atoms: C12_14  and  C13_15 
REMARK    6  A    between atoms: C13_15  and  C14_16 
REMARK       I    between atoms: C14_16  and  N1_18 
REMARK    7  A    between atoms: N1_18  and  C15_19 
ROOT
ATOM      1  C1   11 d         -11.603 206.924 116.583  0.00  0.00     0.259 C 
ATOM      2  O1   11 d         -12.032 206.261 117.563  0.00  0.00    -0.265 OA
ENDROOT
BRANCH   1   3
ATOM      3  O2   11 d         -12.152 206.728 115.284  0.00  0.00    -0.316 OA
BRANCH   3   4
ATOM      4  C2   11 d         -12.171 207.932 114.464  0.00  0.00     0.132 C 
ATOM      5  C3   11 d         -13.607 208.473 114.451  0.00  0.00     0.033 C 
ATOM      6  C4   11 d         -14.576 207.527 113.723  0.00  0.00     0.008 C 
ATOM      7  C5   11 d         -14.136 207.207 112.265  0.00  0.00    -0.007 C 
ATOM      8  C10  11 d         -12.660 206.718 112.273  0.00  0.00     0.008 C 
ATOM      9  C11  11 d         -11.719 207.678 113.013  0.00  0.00     0.033 C 
BRANCH   7  10
ATOM     10  C6   11 d         -15.126 206.272 111.464  0.00  0.00    -0.048 C 
ATOM     11  C7   11 d         -16.418 206.019 112.283  0.00  0.00     0.015 C 
ATOM     12  C8   11 d         -14.488 204.882 111.210  0.00  0.00     0.015 C 
ATOM     13  C9   11 d         -15.541 206.860 110.093  0.00  0.00     0.015 C 
ENDBRANCH   7  10
ENDBRANCH   3   4
ENDBRANCH   1   3
BRANCH   1  14
ATOM     14  C12  11 d         -10.641 208.058 116.793  0.00  0.00     0.120 C 
BRANCH  14  15
ATOM     15  C13  11 d          -9.805 207.921 118.073  0.00  0.00     0.113 C 
BRANCH  15  16
ATOM     16  C14  11 d          -8.327 207.719 117.842  0.00  0.00     0.222 C 
ATOM     17  O3   11 d          -7.719 206.789 118.475  0.00  0.00    -0.273 OA
ATOM     18  N1   11 d          -7.649 208.584 116.921  0.00  0.00    -0.327 N 
ATOM     19  H24  11 d          -8.273 209.322 116.459  0.00  0.00     0.169 HD
BRANCH  18  20
ATOM     20  C15  11 d          -6.209 208.570 116.541  0.00  0.00     0.040 A 
ATOM     21  C16  11 d          -5.274 209.334 117.305  0.00  0.00    -0.035 A 
ATOM     22  C17  11 d          -3.908 209.345 116.947  0.00  0.00     0.009 A 
ATOM     23  C21  11 d          -5.685 210.139 118.516  0.00  0.00     0.050 C 
ATOM     24  C18  11 d          -3.451 208.614 115.848  0.00  0.00     0.001 A 
ATOM     25  C19  11 d          -4.351 207.858 115.095  0.00  0.00     0.002 A 
ATOM     26  C20  11 d          -5.710 207.834 115.436  0.00  0.00     0.030 A 
ENDBRANCH  18  20
ENDBRANCH  15  16
ENDBRANCH  14  15
ENDBRANCH   1  14
TORSDOF 7
ENDMDL
MODEL 9
REMARK VINA RESULT:      -7.4      2.460      5.072
REMARK  7 active torsions:
REMARK  status: ('A' for Active; 'I' for Inactive)
REMARK    1  A    between atoms: C1_1  and  O2_3 
REMARK    2  A    between atoms: C1_1  and  C12_14 
REMARK    3  A    between atoms: O2_3  and  C2_4 
REMARK    4  A    between atoms: C5_7  and  C6_8 
REMARK    5  A    between atoms: C12_14  and  C13_15 
REMARK    6  A    between atoms: C13_15  and  C14_16 
REMARK       I    between atoms: C14_16  and  N1_18 
REMARK    7  A    between atoms: N1_18  and  C15_19 
ROOT
ATOM      1  C1   11 d         -12.886 206.876 111.213  0.00  0.00     0.259 C 
ATOM      2  O1   11 d         -13.575 206.917 110.160  0.00  0.00    -0.265 OA
ENDROOT
BRANCH   1   3
ATOM      3  O2   11 d         -13.418 206.298 112.400  0.00  0.00    -0.316 OA
BRANCH   3   4
ATOM      4  C2   11 d         -14.575 207.005 112.933  0.00  0.00     0.132 C 
ATOM      5  C3   11 d         -14.065 208.132 113.840  0.00  0.00     0.033 C 
ATOM      6  C4   11 d         -13.363 207.591 115.098  0.00  0.00     0.008 C 
ATOM      7  C5   11 d         -14.259 206.630 115.930  0.00  0.00    -0.007 C 
ATOM      8  C10  11 d         -14.826 205.524 114.997  0.00  0.00     0.008 C 
ATOM      9  C11  11 d         -15.513 206.093 113.748  0.00  0.00     0.033 C 
BRANCH   7  10
ATOM     10  C6   11 d         -13.593 206.083 117.254  0.00  0.00    -0.048 C 
ATOM     11  C7   11 d         -14.214 204.719 117.654  0.00  0.00     0.015 C 
ATOM     12  C8   11 d         -13.853 207.048 118.441  0.00  0.00     0.015 C 
ATOM     13  C9   11 d         -12.062 205.889 117.130  0.00  0.00     0.015 C 
ENDBRANCH   7  10
ENDBRANCH   3   4
ENDBRANCH   1   3
BRANCH   1  14
ATOM     14  C12  11 d         -11.435 207.265 111.190  0.00  0.00     0.120 C 
BRANCH  14  15
ATOM     15  C13  11 d         -10.789 207.295 112.582  0.00  0.00     0.113 C 
BRANCH  15  16
ATOM     16  C14  11 d          -9.656 208.281 112.730  0.00  0.00     0.222 C 
ATOM     17  O3   11 d          -9.658 209.344 112.020  0.00  0.00    -0.273 OA
ATOM     18  N1   11 d          -8.606 207.989 113.661  0.00  0.00    -0.327 N 
ATOM     19  H24  11 d          -8.724 207.065 114.192  0.00  0.00     0.169 HD
BRANCH  18  20
ATOM     20  C15  11 d          -7.401 208.806 113.970  0.00  0.00     0.040 A 
ATOM     21  C16  11 d          -6.324 208.853 113.031  0.00  0.00    -0.035 A 
ATOM     22  C17  11 d          -5.167 209.610 113.317  0.00  0.00     0.009 A 
ATOM     23  C21  11 d          -6.373 208.124 111.709  0.00  0.00     0.050 C 
ATOM     24  C18  11 d          -5.057 210.322 114.514  0.00  0.00     0.001 A 
ATOM     25  C19  11 d          -6.101 210.291 115.439  0.00  0.00     0.002 A 
ATOM     26  C20  11 d          -7.258 209.547 115.172  0.00  0.00     0.030 A 
ENDBRANCH  18  20
ENDBRANCH  15  16
ENDBRANCH  14  15
ENDBRANCH   1  14
TORSDOF 7
ENDMDL
MODEL 10
REMARK VINA RESULT:      -7.3      4.280      7.327
REMARK  7 active torsions:
REMARK  status: ('A' for Active; 'I' for Inactive)
REMARK    1  A    between atoms: C1_1  and  O2_3 
REMARK    2  A    between atoms: C1_1  and  C12_14 
REMARK    3  A    between atoms: O2_3  and  C2_4 
REMARK    4  A    between atoms: C5_7  and  C6_8 
REMARK    5  A    between atoms: C12_14  and  C13_15 
REMARK    6  A    between atoms: C13_15  and  C14_16 
REMARK       I    between atoms: C14_16  and  N1_18 
REMARK    7  A    between atoms: N1_18  and  C15_19 
ROOT
ATOM      1  C1   11 d         -12.834 205.963 117.064  0.00  0.00     0.259 C 
ATOM      2  O1   11 d         -11.652 205.937 117.497  0.00  0.00    -0.265 OA
ENDROOT
BRANCH   1   3
ATOM      3  O2   11 d         -13.088 206.080 115.668  0.00  0.00    -0.316 OA
BRANCH   3   4
ATOM      4  C2   11 d         -13.195 207.456 115.201  0.00  0.00     0.132 C 
ATOM      5  C3   11 d         -14.685 207.786 115.040  0.00  0.00     0.033 C 
ATOM      6  C4   11 d         -15.341 206.971 113.912  0.00  0.00     0.008 C 
ATOM      7  C5   11 d         -14.626 207.145 112.541  0.00  0.00    -0.007 C 
ATOM      8  C10  11 d         -13.107 206.871 112.718  0.00  0.00     0.008 C 
ATOM      9  C11  11 d         -12.482 207.691 113.855  0.00  0.00     0.033 C 
BRANCH   7  10
ATOM     10  C6   11 d         -15.293 206.359 111.343  0.00  0.00    -0.048 C 
ATOM     11  C7   11 d         -15.137 207.151 110.019  0.00  0.00     0.015 C 
ATOM     12  C8   11 d         -16.816 206.187 111.576  0.00  0.00     0.015 C 
ATOM     13  C9   11 d         -14.686 204.951 111.128  0.00  0.00     0.015 C 
ENDBRANCH   7  10
ENDBRANCH   3   4
ENDBRANCH   1   3
BRANCH   1  14
ATOM     14  C12  11 d         -13.989 205.688 117.984  0.00  0.00     0.120 C 
BRANCH  14  15
ATOM     15  C13  11 d         -14.168 206.753 119.075  0.00  0.00     0.113 C 
BRANCH  15  16
ATOM     16  C14  11 d         -14.140 206.221 120.487  0.00  0.00     0.222 C 
ATOM     17  O3   11 d         -14.564 206.960 121.440  0.00  0.00    -0.273 OA
ATOM     18  N1   11 d         -13.630 204.901 120.716  0.00  0.00    -0.327 N 
ATOM     19  H24  11 d         -13.306 204.388 119.832  0.00  0.00     0.169 HD
BRANCH  18  20
ATOM     20  C15  11 d         -13.507 204.177 122.011  0.00  0.00     0.040 A 
ATOM     21  C16  11 d         -12.236 204.113 122.662  0.00  0.00    -0.035 A 
ATOM     22  C17  11 d         -12.100 203.416 123.882  0.00  0.00     0.009 A 
ATOM     23  C21  11 d         -11.006 204.785 122.099  0.00  0.00     0.050 C 
ATOM     24  C18  11 d         -13.197 202.782 124.470  0.00  0.00     0.001 A 
ATOM     25  C19  11 d         -14.446 202.840 123.850  0.00  0.00     0.002 A 
ATOM     26  C20  11 d         -14.601 203.528 122.639  0.00  0.00     0.030 A 
ENDBRANCH  18  20
ENDBRANCH  15  16
ENDBRANCH  14  15
ENDBRANCH   1  14
TORSDOF 7
ENDMDL
