MODEL 1
REMARK VINA RESULT:     -10.5      0.000      0.000
REMARK  3 active torsions:
REMARK  status: ('A' for Active; 'I' for Inactive)
REMARK    1  A    between atoms: C16_17  and  S1_29 
REMARK    2  A    between atoms: C20_23  and  O2_24 
REMARK    3  A    between atoms: S1_29  and  C25_30 
ROOT
ATOM      1  C25  11 d          -8.972 208.014 117.207  0.00  0.00     0.206 C 
ATOM      2  C26  11 d          -8.237 207.263 118.224  0.00  0.00     0.069 C 
ATOM      3  N3   11 d          -7.644 206.660 119.037  0.00  0.00    -0.197 NA
ENDROOT
BRANCH   1   4
ATOM      4  S1   11 d         -10.605 208.505 117.884  0.00  0.00    -0.077 SA
BRANCH   4   5
ATOM      5  C16  11 d         -11.560 207.724 116.548  0.00  0.00     0.177 C 
ATOM      6  N1   11 d         -11.167 207.983 115.281  0.00  0.00    -0.223 NA
ATOM      7  C2   11 d         -11.829 207.509 114.191  0.00  0.00     0.083 C 
ATOM      8  C1   11 d         -13.058 206.811 114.364  0.00  0.00     0.049 C 
ATOM      9  C3   11 d         -11.260 207.712 112.912  0.00  0.00    -0.000 A 
ATOM     10  C10  11 d         -13.893 206.467 113.094  0.00  0.00    -0.002 C 
ATOM     11  C17  11 d         -13.387 206.455 115.705  0.00  0.00     0.263 C 
ATOM     12  C9   11 d         -12.892 206.019 111.988  0.00  0.00     0.054 C 
ATOM     13  C11  11 d         -14.987 205.360 113.255  0.00  0.00     0.015 C 
ATOM     14  C15  11 d         -14.643 207.776 112.685  0.00  0.00     0.015 C 
ATOM     15  C4   11 d         -11.747 206.982 111.802  0.00  0.00    -0.044 A 
ATOM     16  C5   11 d         -11.224 207.219 110.515  0.00  0.00     0.008 A 
ATOM     17  C6   11 d         -10.163 208.115 110.337  0.00  0.00     0.001 A 
ATOM     18  C7   11 d          -9.629 208.795 111.439  0.00  0.00     0.001 A 
ATOM     19  C8   11 d         -10.170 208.596 112.716  0.00  0.00     0.014 A 
ATOM     20  C12  11 d         -15.901 205.171 112.030  0.00  0.00     0.001 C 
ATOM     21  C13  11 d         -16.578 206.492 111.641  0.00  0.00     0.000 C 
ATOM     22  C14  11 d         -15.570 207.632 111.464  0.00  0.00     0.001 C 
ATOM     23  N2   11 d         -12.638 206.911 116.771  0.00  0.00    -0.257 N 
ATOM     24  O1   11 d         -14.374 205.716 115.944  0.00  0.00    -0.267 OA
ATOM     25  C18  11 d         -12.997 206.533 118.121  0.00  0.00     0.047 A 
ATOM     26  C19  11 d         -14.224 206.945 118.676  0.00  0.00     0.066 A 
ATOM     27  C24  11 d         -12.131 205.727 118.888  0.00  0.00     0.030 A 
ATOM     28  C20  11 d         -14.594 206.537 119.967  0.00  0.00     0.070 A 
ATOM     29  C22  11 d         -13.702 205.777 120.740  0.00  0.00     0.037 A 
ATOM     30  C23  11 d         -12.477 205.362 120.197  0.00  0.00     0.005 A 
BRANCH  28  31
ATOM     31  O2   11 d         -15.810 206.999 120.538  0.00  0.00    -0.356 OA
ATOM     32  C21  11 d         -16.450 205.906 121.243  0.00  0.00     0.210 C 
ENDBRANCH  28  31
ENDBRANCH   4   5
ENDBRANCH   1   4
TORSDOF 3
ENDMDL
MODEL 2
REMARK VINA RESULT:      -9.7      3.042      4.442
REMARK  3 active torsions:
REMARK  status: ('A' for Active; 'I' for Inactive)
REMARK    1  A    between atoms: C16_17  and  S1_29 
REMARK    2  A    between atoms: C20_23  and  O2_24 
REMARK    3  A    between atoms: S1_29  and  C25_30 
ROOT
ATOM      1  C25  11 d          -6.269 209.558 113.880  0.00  0.00     0.206 C 
ATOM      2  C26  11 d          -4.833 209.805 113.751  0.00  0.00     0.069 C 
ATOM      3  N3   11 d          -3.681 210.001 113.644  0.00  0.00    -0.197 NA
ENDROOT
BRANCH   1   4
ATOM      4  S1   11 d          -6.751 209.720 115.643  0.00  0.00    -0.077 SA
BRANCH   4   5
ATOM      5  C16  11 d          -8.289 208.767 115.463  0.00  0.00     0.177 C 
ATOM      6  N1   11 d          -8.827 208.697 114.224  0.00  0.00    -0.223 NA
ATOM      7  C2   11 d         -10.004 208.067 113.964  0.00  0.00     0.083 C 
ATOM      8  C1   11 d         -10.781 207.556 115.043  0.00  0.00     0.049 C 
ATOM      9  C3   11 d         -10.411 207.922 112.617  0.00  0.00    -0.000 A 
ATOM     10  C10  11 d         -12.214 207.029 114.731  0.00  0.00    -0.002 C 
ATOM     11  C17  11 d         -10.141 207.541 116.317  0.00  0.00     0.263 C 
ATOM     12  C9   11 d         -12.138 206.246 113.387  0.00  0.00     0.054 C 
ATOM     13  C11  11 d         -12.869 206.105 115.810  0.00  0.00     0.015 C 
ATOM     14  C15  11 d         -13.133 208.286 114.606  0.00  0.00     0.015 C 
ATOM     15  C4   11 d         -11.451 207.020 112.291  0.00  0.00    -0.044 A 
ATOM     16  C5   11 d         -11.900 206.911 110.959  0.00  0.00     0.008 A 
ATOM     17  C6   11 d         -11.267 207.631 109.938  0.00  0.00     0.001 A 
ATOM     18  C7   11 d         -10.194 208.477 110.241  0.00  0.00     0.001 A 
ATOM     19  C8   11 d          -9.767 208.622 111.568  0.00  0.00     0.014 A 
ATOM     20  C12  11 d         -14.343 205.746 115.546  0.00  0.00     0.001 C 
ATOM     21  C13  11 d         -15.196 207.012 115.385  0.00  0.00     0.000 C 
ATOM     22  C14  11 d         -14.618 207.974 114.342  0.00  0.00     0.001 C 
ATOM     23  N2   11 d          -8.912 208.139 116.508  0.00  0.00    -0.257 N 
ATOM     24  O1   11 d         -10.688 206.979 117.298  0.00  0.00    -0.267 OA
ATOM     25  C18  11 d          -8.288 208.108 117.813  0.00  0.00     0.047 A 
ATOM     26  C19  11 d          -8.888 208.758 118.908  0.00  0.00     0.066 A 
ATOM     27  C24  11 d          -7.081 207.406 118.008  0.00  0.00     0.030 A 
ATOM     28  C20  11 d          -8.309 208.686 120.184  0.00  0.00     0.070 A 
ATOM     29  C22  11 d          -7.082 208.026 120.356  0.00  0.00     0.037 A 
ATOM     30  C23  11 d          -6.474 207.376 119.272  0.00  0.00     0.005 A 
BRANCH  28  31
ATOM     31  O2   11 d          -8.895 209.387 121.273  0.00  0.00    -0.356 OA
ATOM     32  C21  11 d          -8.492 208.758 122.516  0.00  0.00     0.210 C 
ENDBRANCH  28  31
ENDBRANCH   4   5
ENDBRANCH   1   4
TORSDOF 3
ENDMDL
MODEL 3
REMARK VINA RESULT:      -7.9      3.400      7.144
REMARK  3 active torsions:
REMARK  status: ('A' for Active; 'I' for Inactive)
REMARK    1  A    between atoms: C16_17  and  S1_29 
REMARK    2  A    between atoms: C20_23  and  O2_24 
REMARK    3  A    between atoms: S1_29  and  C25_30 
ROOT
ATOM      1  C25  11 d          -7.067 208.736 119.404  0.00  0.00     0.206 C 
ATOM      2  C26  11 d          -6.138 209.865 119.376  0.00  0.00     0.069 C 
ATOM      3  N3   11 d          -5.394 210.772 119.355  0.00  0.00    -0.197 NA
ENDROOT
BRANCH   1   4
ATOM      4  S1   11 d          -6.652 207.579 118.042  0.00  0.00    -0.077 SA
BRANCH   4   5
ATOM      5  C16  11 d          -8.256 207.753 117.205  0.00  0.00     0.177 C 
ATOM      6  N1   11 d          -9.341 207.268 117.851  0.00  0.00    -0.223 NA
ATOM      7  C2   11 d         -10.590 207.283 117.310  0.00  0.00     0.083 C 
ATOM      8  C1   11 d         -10.768 207.711 115.964  0.00  0.00     0.049 C 
ATOM      9  C3   11 d         -11.681 206.887 118.118  0.00  0.00    -0.000 A 
ATOM     10  C10  11 d         -12.170 207.518 115.312  0.00  0.00    -0.002 C 
ATOM     11  C17  11 d          -9.634 208.320 115.350  0.00  0.00     0.263 C 
ATOM     12  C9   11 d         -13.236 207.875 116.389  0.00  0.00     0.054 C 
ATOM     13  C11  11 d         -12.462 208.357 114.024  0.00  0.00     0.015 C 
ATOM     14  C15  11 d         -12.265 206.016 114.894  0.00  0.00     0.015 C 
ATOM     15  C4   11 d         -13.003 207.177 117.704  0.00  0.00    -0.044 A 
ATOM     16  C5   11 d         -14.098 206.737 118.476  0.00  0.00     0.008 A 
ATOM     17  C6   11 d         -13.886 206.084 119.697  0.00  0.00     0.001 A 
ATOM     18  C7   11 d         -12.581 205.850 120.148  0.00  0.00     0.001 A 
ATOM     19  C8   11 d         -11.487 206.249 119.368  0.00  0.00     0.014 A 
ATOM     20  C12  11 d         -13.786 208.013 113.315  0.00  0.00     0.001 C 
ATOM     21  C13  11 d         -13.851 206.520 112.966  0.00  0.00     0.000 C 
ATOM     22  C14  11 d         -13.573 205.627 114.180  0.00  0.00     0.001 C 
ATOM     23  N2   11 d          -8.404 208.336 115.976  0.00  0.00    -0.257 N 
ATOM     24  O1   11 d          -9.734 208.857 114.220  0.00  0.00    -0.267 OA
ATOM     25  C18  11 d          -7.272 208.961 115.327  0.00  0.00     0.047 A 
ATOM     26  C19  11 d          -6.765 208.445 114.119  0.00  0.00     0.066 A 
ATOM     27  C24  11 d          -6.677 210.110 115.887  0.00  0.00     0.030 A 
ATOM     28  C20  11 d          -5.698 209.081 113.464  0.00  0.00     0.070 A 
ATOM     29  C22  11 d          -5.082 210.195 114.056  0.00  0.00     0.037 A 
ATOM     30  C23  11 d          -5.578 210.717 115.261  0.00  0.00     0.005 A 
BRANCH  28  31
ATOM     31  O2   11 d          -5.161 208.525 112.273  0.00  0.00    -0.356 OA
ATOM     32  C21  11 d          -3.871 207.931 112.564  0.00  0.00     0.210 C 
ENDBRANCH  28  31
ENDBRANCH   4   5
ENDBRANCH   1   4
TORSDOF 3
ENDMDL
MODEL 4
REMARK VINA RESULT:      -7.8      3.917      7.309
REMARK  3 active torsions:
REMARK  status: ('A' for Active; 'I' for Inactive)
REMARK    1  A    between atoms: C16_17  and  S1_29 
REMARK    2  A    between atoms: C20_23  and  O2_24 
REMARK    3  A    between atoms: S1_29  and  C25_30 
ROOT
ATOM      1  C25  11 d          -6.272 206.831 117.413  0.00  0.00     0.206 C 
ATOM      2  C26  11 d          -4.909 206.699 116.900  0.00  0.00     0.069 C 
ATOM      3  N3   11 d          -3.815 206.591 116.489  0.00  0.00    -0.197 NA
ENDROOT
BRANCH   1   4
ATOM      4  S1   11 d          -6.706 208.610 117.522  0.00  0.00    -0.077 SA
BRANCH   4   5
ATOM      5  C16  11 d          -8.033 208.514 116.283  0.00  0.00     0.177 C 
ATOM      6  N1   11 d          -9.280 208.255 116.737  0.00  0.00    -0.223 NA
ATOM      7  C2   11 d         -10.349 208.100 115.912  0.00  0.00     0.083 C 
ATOM      8  C1   11 d         -10.152 208.087 114.501  0.00  0.00     0.049 C 
ATOM      9  C3   11 d         -11.636 207.977 116.487  0.00  0.00    -0.000 A 
ATOM     10  C10  11 d         -11.360 207.700 113.595  0.00  0.00    -0.002 C 
ATOM     11  C17  11 d          -8.856 208.474 114.051  0.00  0.00     0.263 C 
ATOM     12  C9   11 d         -12.627 208.376 114.197  0.00  0.00     0.054 C 
ATOM     13  C11  11 d         -11.254 208.095 112.085  0.00  0.00     0.015 C 
ATOM     14  C15  11 d         -11.470 206.142 113.639  0.00  0.00     0.015 C 
ATOM     15  C4   11 d         -12.785 208.123 115.675  0.00  0.00    -0.044 A 
ATOM     16  C5   11 d         -14.070 207.945 116.229  0.00  0.00     0.008 A 
ATOM     17  C6   11 d         -14.221 207.705 117.600  0.00  0.00     0.001 A 
ATOM     18  C7   11 d         -13.093 207.624 118.425  0.00  0.00     0.001 A 
ATOM     19  C8   11 d         -11.810 207.759 117.876  0.00  0.00     0.014 A 
ATOM     20  C12  11 d         -12.384 207.548 111.192  0.00  0.00     0.001 C 
ATOM     21  C13  11 d         -12.481 206.021 111.305  0.00  0.00     0.000 C 
ATOM     22  C14  11 d         -12.587 205.550 112.760  0.00  0.00     0.001 C 
ATOM     23  N2   11 d          -7.823 208.684 114.941  0.00  0.00    -0.257 N 
ATOM     24  O1   11 d          -8.628 208.632 112.826  0.00  0.00    -0.267 OA
ATOM     25  C18  11 d          -6.518 209.076 114.453  0.00  0.00     0.047 A 
ATOM     26  C19  11 d          -5.771 208.209 113.634  0.00  0.00     0.066 A 
ATOM     27  C24  11 d          -5.989 210.343 114.776  0.00  0.00     0.030 A 
ATOM     28  C20  11 d          -4.527 208.609 113.120  0.00  0.00     0.070 A 
ATOM     29  C22  11 d          -3.989 209.852 113.489  0.00  0.00     0.037 A 
ATOM     30  C23  11 d          -4.723 210.724 114.307  0.00  0.00     0.005 A 
BRANCH  28  31
ATOM     31  O2   11 d          -3.758 207.709 112.335  0.00  0.00    -0.356 OA
ATOM     32  C21  11 d          -2.353 208.038 112.472  0.00  0.00     0.210 C 
ENDBRANCH  28  31
ENDBRANCH   4   5
ENDBRANCH   1   4
TORSDOF 3
ENDMDL
MODEL 5
REMARK VINA RESULT:      -7.6      3.249      7.235
REMARK  3 active torsions:
REMARK  status: ('A' for Active; 'I' for Inactive)
REMARK    1  A    between atoms: C16_17  and  S1_29 
REMARK    2  A    between atoms: C20_23  and  O2_24 
REMARK    3  A    between atoms: S1_29  and  C25_30 
ROOT
ATOM      1  C25  11 d          -6.975 204.994 120.072  0.00  0.00     0.206 C 
ATOM      2  C26  11 d          -6.087 204.732 118.940  0.00  0.00     0.069 C 
ATOM      3  N3   11 d          -5.375 204.519 118.032  0.00  0.00    -0.197 NA
ENDROOT
BRANCH   1   4
ATOM      4  S1   11 d          -6.996 206.796 120.416  0.00  0.00    -0.077 SA
BRANCH   4   5
ATOM      5  C16  11 d          -8.307 207.161 119.210  0.00  0.00     0.177 C 
ATOM      6  N1   11 d          -9.546 206.699 119.490  0.00  0.00    -0.223 NA
ATOM      7  C2   11 d         -10.600 206.853 118.645  0.00  0.00     0.083 C 
ATOM      8  C1   11 d         -10.390 207.413 117.353  0.00  0.00     0.049 C 
ATOM      9  C3   11 d         -11.886 206.464 119.089  0.00  0.00    -0.000 A 
ATOM     10  C10  11 d         -11.571 207.382 116.337  0.00  0.00    -0.002 C 
ATOM     11  C17  11 d          -9.106 207.992 117.128  0.00  0.00     0.263 C 
ATOM     12  C9   11 d         -12.871 207.715 117.127  0.00  0.00     0.054 C 
ATOM     13  C11  11 d         -11.468 208.353 115.115  0.00  0.00     0.015 C 
ATOM     14  C15  11 d         -11.618 205.934 115.751  0.00  0.00     0.015 C 
ATOM     15  C4   11 d         -13.033 206.885 118.375  0.00  0.00    -0.044 A 
ATOM     16  C5   11 d         -14.314 206.456 118.779  0.00  0.00     0.008 A 
ATOM     17  C6   11 d         -14.468 205.681 119.935  0.00  0.00     0.001 A 
ATOM     18  C7   11 d         -13.345 205.314 120.686  0.00  0.00     0.001 A 
ATOM     19  C8   11 d         -12.064 205.702 120.270  0.00  0.00     0.014 A 
ATOM     20  C12  11 d         -12.566 208.172 114.050  0.00  0.00     0.001 C 
ATOM     21  C13  11 d         -12.601 206.725 113.539  0.00  0.00     0.000 C 
ATOM     22  C14  11 d         -12.701 205.707 114.680  0.00  0.00     0.001 C 
ATOM     23  N2   11 d          -8.091 207.862 118.054  0.00  0.00    -0.257 N 
ATOM     24  O1   11 d          -8.873 208.636 116.076  0.00  0.00    -0.267 OA
ATOM     25  C18  11 d          -6.799 208.462 117.797  0.00  0.00     0.047 A 
ATOM     26  C19  11 d          -6.009 208.022 116.718  0.00  0.00     0.066 A 
ATOM     27  C24  11 d          -6.326 209.509 118.614  0.00  0.00     0.030 A 
ATOM     28  C20  11 d          -4.778 208.637 116.439  0.00  0.00     0.070 A 
ATOM     29  C22  11 d          -4.295 209.645 117.289  0.00  0.00     0.037 A 
ATOM     30  C23  11 d          -5.073 210.089 118.369  0.00  0.00     0.005 A 
BRANCH  28  31
ATOM     31  O2   11 d          -3.965 208.154 115.379  0.00  0.00    -0.356 OA
ATOM     32  C21  11 d          -4.815 207.684 114.303  0.00  0.00     0.210 C 
ENDBRANCH  28  31
ENDBRANCH   4   5
ENDBRANCH   1   4
TORSDOF 3
ENDMDL
