MODEL 1
REMARK VINA RESULT:      -7.0      0.000      0.000
REMARK  3 active torsions:
REMARK  status: ('A' for Active; 'I' for Inactive)
REMARK    1  A    between atoms: C1_1  and  C12_15 
REMARK    2  A    between atoms: N2_10  and  C9_11 
REMARK    3  A    between atoms: C9_11  and  C10_12 
ROOT
ATOM      1  C1   11 d         -13.004 206.579 111.394  0.00  0.00     0.038 A 
ATOM      2  C2   11 d         -11.750 207.230 111.297  0.00  0.00     0.061 A 
ATOM      3  N1   11 d         -10.972 207.431 112.382  0.00  0.00    -0.323 N 
ATOM      4  C3   11 d          -9.830 208.066 112.019  0.00  0.00     0.013 A 
ATOM      5  C4   11 d          -9.921 208.325 110.658  0.00  0.00     0.027 A 
ATOM      6  C5   11 d         -11.110 207.784 110.198  0.00  0.00     0.034 A 
ATOM      7  C6   11 d          -8.777 208.629 112.928  0.00  0.00     0.068 C 
ATOM      8  C7   11 d         -11.351 207.016 113.620  0.00  0.00     0.114 A 
ATOM      9  C8   11 d         -12.578 206.348 113.751  0.00  0.00     0.109 A 
ATOM     10  N2   11 d         -13.388 206.105 112.651  0.00  0.00    -0.350 N 
ENDROOT
BRANCH  10  11
ATOM     11  C9   11 d         -14.670 205.361 112.812  0.00  0.00     0.206 C 
BRANCH  11  12
ATOM     12  C10  11 d         -15.968 206.129 112.973  0.00  0.00     0.141 C 
ATOM     13  O1   11 d         -16.031 207.096 113.776  0.00  0.00    -0.297 OA
ATOM     14  C11  11 d         -17.173 205.791 112.145  0.00  0.00     0.092 C 
ENDBRANCH  11  12
ENDBRANCH  10  11
BRANCH   1  15
ATOM     15  C12  11 d         -13.784 206.303 110.118  0.00  0.00     0.055 C 
ATOM     16  C13  11 d         -14.730 207.454 109.790  0.00  0.00     0.011 C 
ENDBRANCH   1  15
TORSDOF 3
ENDMDL
MODEL 2
REMARK VINA RESULT:      -6.8      1.602      2.807
REMARK  3 active torsions:
REMARK  status: ('A' for Active; 'I' for Inactive)
REMARK    1  A    between atoms: C1_1  and  C12_15 
REMARK    2  A    between atoms: N2_10  and  C9_11 
REMARK    3  A    between atoms: C9_11  and  C10_12 
ROOT
ATOM      1  C1   11 d         -12.672 206.817 112.916  0.00  0.00     0.038 A 
ATOM      2  C2   11 d         -11.536 207.570 113.295  0.00  0.00     0.061 A 
ATOM      3  N1   11 d         -10.632 207.994 112.387  0.00  0.00    -0.323 N 
ATOM      4  C3   11 d          -9.649 208.694 113.004  0.00  0.00     0.013 A 
ATOM      5  C4   11 d          -9.917 208.658 114.367  0.00  0.00     0.027 A 
ATOM      6  C5   11 d         -11.107 207.975 114.552  0.00  0.00     0.034 A 
ATOM      7  C6   11 d          -8.371 209.192 112.397  0.00  0.00     0.068 C 
ATOM      8  C7   11 d         -10.771 207.723 111.061  0.00  0.00     0.114 A 
ATOM      9  C8   11 d         -11.898 206.997 110.645  0.00  0.00     0.109 A 
ATOM     10  N2   11 d         -12.856 206.568 111.553  0.00  0.00    -0.350 N 
ENDROOT
BRANCH  10  11
ATOM     11  C9   11 d         -14.061 205.830 111.081  0.00  0.00     0.206 C 
BRANCH  11  12
ATOM     12  C10  11 d         -15.276 206.603 110.603  0.00  0.00     0.141 C 
ATOM     13  O1   11 d         -15.185 207.357 109.599  0.00  0.00    -0.297 OA
ATOM     14  C11  11 d         -16.607 206.441 111.274  0.00  0.00     0.092 C 
ENDBRANCH  11  12
ENDBRANCH  10  11
BRANCH   1  15
ATOM     15  C12  11 d         -13.697 206.453 113.981  0.00  0.00     0.055 C 
ATOM     16  C13  11 d         -14.664 207.606 114.232  0.00  0.00     0.011 C 
ENDBRANCH   1  15
TORSDOF 3
ENDMDL
MODEL 3
REMARK VINA RESULT:      -6.6      2.198      5.010
REMARK  3 active torsions:
REMARK  status: ('A' for Active; 'I' for Inactive)
REMARK    1  A    between atoms: C1_1  and  C12_15 
REMARK    2  A    between atoms: N2_10  and  C9_11 
REMARK    3  A    between atoms: C9_11  and  C10_12 
ROOT
ATOM      1  C1   11 d         -12.606 206.285 113.479  0.00  0.00     0.038 A 
ATOM      2  C2   11 d         -13.673 206.310 112.549  0.00  0.00     0.061 A 
ATOM      3  N1   11 d         -14.960 206.235 112.946  0.00  0.00    -0.323 N 
ATOM      4  C3   11 d         -15.781 206.286 111.868  0.00  0.00     0.013 A 
ATOM      5  C4   11 d         -14.971 206.337 110.741  0.00  0.00     0.027 A 
ATOM      6  C5   11 d         -13.652 206.375 111.163  0.00  0.00     0.034 A 
ATOM      7  C6   11 d         -17.264 206.063 111.845  0.00  0.00     0.068 C 
ATOM      8  C7   11 d         -15.297 206.135 114.260  0.00  0.00     0.114 A 
ATOM      9  C8   11 d         -14.267 206.129 115.213  0.00  0.00     0.109 A 
ATOM     10  N2   11 d         -12.935 206.229 114.836  0.00  0.00    -0.350 N 
ENDROOT
BRANCH  10  11
ATOM     11  C9   11 d         -11.863 206.257 115.870  0.00  0.00     0.206 C 
BRANCH  11  12
ATOM     12  C10  11 d         -11.654 207.507 116.703  0.00  0.00     0.141 C 
ATOM     13  O1   11 d         -12.371 207.713 117.717  0.00  0.00    -0.297 OA
ATOM     14  C11  11 d         -10.564 208.483 116.372  0.00  0.00     0.092 C 
ENDBRANCH  11  12
ENDBRANCH  10  11
BRANCH   1  15
ATOM     15  C12  11 d         -11.185 206.469 112.967  0.00  0.00     0.055 C 
ATOM     16  C13  11 d         -10.871 207.943 112.732  0.00  0.00     0.011 C 
ENDBRANCH   1  15
TORSDOF 3
ENDMDL
MODEL 4
REMARK VINA RESULT:      -6.6      1.543      2.294
REMARK  3 active torsions:
REMARK  status: ('A' for Active; 'I' for Inactive)
REMARK    1  A    between atoms: C1_1  and  C12_15 
REMARK    2  A    between atoms: N2_10  and  C9_11 
REMARK    3  A    between atoms: C9_11  and  C10_12 
ROOT
ATOM      1  C1   11 d         -11.927 206.818 111.800  0.00  0.00     0.038 A 
ATOM      2  C2   11 d         -11.095 207.516 112.708  0.00  0.00     0.061 A 
ATOM      3  N1   11 d         -11.426 207.652 114.010  0.00  0.00    -0.323 N 
ATOM      4  C3   11 d         -10.464 208.351 114.661  0.00  0.00     0.013 A 
ATOM      5  C4   11 d          -9.517 208.720 113.714  0.00  0.00     0.027 A 
ATOM      6  C5   11 d          -9.896 208.181 112.496  0.00  0.00     0.034 A 
ATOM      7  C6   11 d         -10.514 208.871 116.067  0.00  0.00     0.068 C 
ATOM      8  C7   11 d         -12.572 207.122 114.514  0.00  0.00     0.114 A 
ATOM      9  C8   11 d         -13.411 206.405 113.648  0.00  0.00     0.109 A 
ATOM     10  N2   11 d         -13.086 206.228 112.311  0.00  0.00    -0.350 N 
ENDROOT
BRANCH  10  11
ATOM     11  C9   11 d         -13.977 205.432 111.421  0.00  0.00     0.206 C 
BRANCH  11  12
ATOM     12  C10  11 d         -15.341 205.977 111.040  0.00  0.00     0.141 C 
ATOM     13  O1   11 d         -16.378 205.499 111.568  0.00  0.00    -0.297 OA
ATOM     14  C11  11 d         -15.474 207.124 110.082  0.00  0.00     0.092 C 
ENDBRANCH  11  12
ENDBRANCH  10  11
BRANCH   1  15
ATOM     15  C12  11 d         -11.446 206.624 110.370  0.00  0.00     0.055 C 
ATOM     16  C13  11 d         -11.838 207.809 109.491  0.00  0.00     0.011 C 
ENDBRANCH   1  15
TORSDOF 3
ENDMDL
MODEL 5
REMARK VINA RESULT:      -6.3      1.670      2.002
REMARK  3 active torsions:
REMARK  status: ('A' for Active; 'I' for Inactive)
REMARK    1  A    between atoms: C1_1  and  C12_15 
REMARK    2  A    between atoms: N2_10  and  C9_11 
REMARK    3  A    between atoms: C9_11  and  C10_12 
ROOT
ATOM      1  C1   11 d         -12.993 206.474 112.296  0.00  0.00     0.038 A 
ATOM      2  C2   11 d         -11.892 207.150 111.717  0.00  0.00     0.061 A 
ATOM      3  N1   11 d         -10.995 207.819 112.472  0.00  0.00    -0.323 N 
ATOM      4  C3   11 d         -10.042 208.368 111.680  0.00  0.00     0.013 A 
ATOM      5  C4   11 d         -10.388 208.080 110.366  0.00  0.00     0.027 A 
ATOM      6  C5   11 d         -11.531 207.300 110.385  0.00  0.00     0.034 A 
ATOM      7  C6   11 d          -8.964 209.328 112.089  0.00  0.00     0.068 C 
ATOM      8  C7   11 d         -11.102 207.873 113.826  0.00  0.00     0.114 A 
ATOM      9  C8   11 d         -12.169 207.197 114.437  0.00  0.00     0.109 A 
ATOM     10  N2   11 d         -13.093 206.481 113.689  0.00  0.00    -0.350 N 
ENDROOT
BRANCH  10  11
ATOM     11  C9   11 d         -14.195 205.742 114.366  0.00  0.00     0.206 C 
BRANCH  11  12
ATOM     12  C10  11 d         -14.392 205.892 115.863  0.00  0.00     0.141 C 
ATOM     13  O1   11 d         -14.700 207.012 116.346  0.00  0.00    -0.297 OA
ATOM     14  C11  11 d         -14.282 204.708 116.778  0.00  0.00     0.092 C 
ENDBRANCH  11  12
ENDBRANCH  10  11
BRANCH   1  15
ATOM     15  C12  11 d         -13.910 205.663 111.392  0.00  0.00     0.055 C 
ATOM     16  C13  11 d         -15.045 206.524 110.844  0.00  0.00     0.011 C 
ENDBRANCH   1  15
TORSDOF 3
ENDMDL
MODEL 6
REMARK VINA RESULT:      -6.2      2.371      5.776
REMARK  3 active torsions:
REMARK  status: ('A' for Active; 'I' for Inactive)
REMARK    1  A    between atoms: C1_1  and  C12_15 
REMARK    2  A    between atoms: N2_10  and  C9_11 
REMARK    3  A    between atoms: C9_11  and  C10_12 
ROOT
ATOM      1  C1   11 d         -11.957 207.791 113.731  0.00  0.00     0.038 A 
ATOM      2  C2   11 d         -13.267 207.449 113.318  0.00  0.00     0.061 A 
ATOM      3  N1   11 d         -13.527 207.041 112.058  0.00  0.00    -0.323 N 
ATOM      4  C3   11 d         -14.849 206.770 111.923  0.00  0.00     0.013 A 
ATOM      5  C4   11 d         -15.454 207.076 113.135  0.00  0.00     0.027 A 
ATOM      6  C5   11 d         -14.465 207.480 114.017  0.00  0.00     0.034 A 
ATOM      7  C6   11 d         -15.586 206.457 110.655  0.00  0.00     0.068 C 
ATOM      8  C7   11 d         -12.544 206.935 111.124  0.00  0.00     0.114 A 
ATOM      9  C8   11 d         -11.230 207.246 111.504  0.00  0.00     0.109 A 
ATOM     10  N2   11 d         -10.927 207.644 112.799  0.00  0.00    -0.350 N 
ENDROOT
BRANCH  10  11
ATOM     11  C9   11 d          -9.518 207.934 113.186  0.00  0.00     0.206 C 
BRANCH  11  12
ATOM     12  C10  11 d          -8.686 208.879 112.340  0.00  0.00     0.141 C 
ATOM     13  O1   11 d          -9.139 210.013 112.035  0.00  0.00    -0.297 OA
ATOM     14  C11  11 d          -7.300 208.508 111.903  0.00  0.00     0.092 C 
ENDBRANCH  11  12
ENDBRANCH  10  11
BRANCH   1  15
ATOM     15  C12  11 d         -11.723 208.152 115.191  0.00  0.00     0.055 C 
ATOM     16  C13  11 d         -11.497 206.902 116.038  0.00  0.00     0.011 C 
ENDBRANCH   1  15
TORSDOF 3
ENDMDL
MODEL 7
REMARK VINA RESULT:      -6.1      2.347      4.005
REMARK  3 active torsions:
REMARK  status: ('A' for Active; 'I' for Inactive)
REMARK    1  A    between atoms: C1_1  and  C12_15 
REMARK    2  A    between atoms: N2_10  and  C9_11 
REMARK    3  A    between atoms: C9_11  and  C10_12 
ROOT
ATOM      1  C1   11 d         -12.785 206.280 113.649  0.00  0.00     0.038 A 
ATOM      2  C2   11 d         -12.429 206.765 114.930  0.00  0.00     0.061 A 
ATOM      3  N1   11 d         -13.311 206.776 115.953  0.00  0.00    -0.323 N 
ATOM      4  C3   11 d         -12.722 207.279 117.065  0.00  0.00     0.013 A 
ATOM      5  C4   11 d         -11.433 207.655 116.710  0.00  0.00     0.027 A 
ATOM      6  C5   11 d         -11.238 207.315 115.382  0.00  0.00     0.034 A 
ATOM      7  C6   11 d         -13.386 207.625 118.366  0.00  0.00     0.068 C 
ATOM      8  C7   11 d         -14.582 206.318 115.804  0.00  0.00     0.114 A 
ATOM      9  C8   11 d         -14.965 205.810 114.553  0.00  0.00     0.109 A 
ATOM     10  N2   11 d         -14.074 205.763 113.490  0.00  0.00    -0.350 N 
ENDROOT
BRANCH  10  11
ATOM     11  C9   11 d         -14.494 205.186 112.182  0.00  0.00     0.206 C 
BRANCH  11  12
ATOM     12  C10  11 d         -15.585 205.866 111.377  0.00  0.00     0.141 C 
ATOM     13  O1   11 d         -16.794 205.620 111.625  0.00  0.00    -0.297 OA
ATOM     14  C11  11 d         -15.249 206.877 110.321  0.00  0.00     0.092 C 
ENDBRANCH  11  12
ENDBRANCH  10  11
BRANCH   1  15
ATOM     15  C12  11 d         -11.714 206.212 112.570  0.00  0.00     0.055 C 
ATOM     16  C13  11 d         -11.656 207.509 111.768  0.00  0.00     0.011 C 
ENDBRANCH   1  15
TORSDOF 3
ENDMDL
MODEL 8
REMARK VINA RESULT:      -6.1      2.559      4.757
REMARK  3 active torsions:
REMARK  status: ('A' for Active; 'I' for Inactive)
REMARK    1  A    between atoms: C1_1  and  C12_15 
REMARK    2  A    between atoms: N2_10  and  C9_11 
REMARK    3  A    between atoms: C9_11  and  C10_12 
ROOT
ATOM      1  C1   11 d         -12.988 205.974 114.408  0.00  0.00     0.038 A 
ATOM      2  C2   11 d         -13.300 206.318 113.071  0.00  0.00     0.061 A 
ATOM      3  N1   11 d         -14.577 206.411 112.644  0.00  0.00    -0.323 N 
ATOM      4  C3   11 d         -14.602 206.758 111.334  0.00  0.00     0.013 A 
ATOM      5  C4   11 d         -13.283 206.831 110.905  0.00  0.00     0.027 A 
ATOM      6  C5   11 d         -12.465 206.578 111.993  0.00  0.00     0.034 A 
ATOM      7  C6   11 d         -15.798 206.802 110.429  0.00  0.00     0.068 C 
ATOM      8  C7   11 d         -15.627 206.182 113.477  0.00  0.00     0.114 A 
ATOM      9  C8   11 d         -15.357 205.860 114.816  0.00  0.00     0.109 A 
ATOM     10  N2   11 d         -14.055 205.781 115.290  0.00  0.00    -0.350 N 
ENDROOT
BRANCH  10  11
ATOM     11  C9   11 d         -13.796 205.472 116.724  0.00  0.00     0.206 C 
BRANCH  11  12
ATOM     12  C10  11 d         -13.824 206.590 117.750  0.00  0.00     0.141 C 
ATOM     13  O1   11 d         -13.721 207.787 117.377  0.00  0.00    -0.297 OA
ATOM     14  C11  11 d         -14.032 206.295 119.206  0.00  0.00     0.092 C 
ENDBRANCH  11  12
ENDBRANCH  10  11
BRANCH   1  15
ATOM     15  C12  11 d         -11.530 205.980 114.843  0.00  0.00     0.055 C 
ATOM     16  C13  11 d         -11.063 207.392 115.186  0.00  0.00     0.011 C 
ENDBRANCH   1  15
TORSDOF 3
ENDMDL
MODEL 9
REMARK VINA RESULT:      -6.0      2.456      5.165
REMARK  3 active torsions:
REMARK  status: ('A' for Active; 'I' for Inactive)
REMARK    1  A    between atoms: C1_1  and  C12_15 
REMARK    2  A    between atoms: N2_10  and  C9_11 
REMARK    3  A    between atoms: C9_11  and  C10_12 
ROOT
ATOM      1  C1   11 d         -13.836 206.627 114.389  0.00  0.00     0.038 A 
ATOM      2  C2   11 d         -14.611 206.716 113.207  0.00  0.00     0.061 A 
ATOM      3  N1   11 d         -14.037 206.860 111.994  0.00  0.00    -0.323 N 
ATOM      4  C3   11 d         -14.993 206.913 111.034  0.00  0.00     0.013 A 
ATOM      5  C4   11 d         -16.222 206.858 111.679  0.00  0.00     0.027 A 
ATOM      6  C5   11 d         -15.988 206.713 113.036  0.00  0.00     0.034 A 
ATOM      7  C6   11 d         -14.804 207.236 109.581  0.00  0.00     0.068 C 
ATOM      8  C7   11 d         -12.687 206.922 111.846  0.00  0.00     0.114 A 
ATOM      9  C8   11 d         -11.886 206.816 112.993  0.00  0.00     0.109 A 
ATOM     10  N2   11 d         -12.446 206.643 114.251  0.00  0.00    -0.350 N 
ENDROOT
BRANCH  10  11
ATOM     11  C9   11 d         -11.571 206.497 115.448  0.00  0.00     0.206 C 
BRANCH  11  12
ATOM     12  C10  11 d         -11.259 207.711 116.303  0.00  0.00     0.141 C 
ATOM     13  O1   11 d         -10.744 208.732 115.778  0.00  0.00    -0.297 OA
ATOM     14  C11  11 d         -11.608 207.738 117.762  0.00  0.00     0.092 C 
ENDBRANCH  11  12
ENDBRANCH  10  11
BRANCH   1  15
ATOM     15  C12  11 d         -14.546 206.372 115.710  0.00  0.00     0.055 C 
ATOM     16  C13  11 d         -14.753 204.878 115.945  0.00  0.00     0.011 C 
ENDBRANCH   1  15
TORSDOF 3
ENDMDL
MODEL 10
REMARK VINA RESULT:      -6.0      2.927      6.068
REMARK  3 active torsions:
REMARK  status: ('A' for Active; 'I' for Inactive)
REMARK    1  A    between atoms: C1_1  and  C12_15 
REMARK    2  A    between atoms: N2_10  and  C9_11 
REMARK    3  A    between atoms: C9_11  and  C10_12 
ROOT
ATOM      1  C1   11 d          -9.254 208.690 112.886  0.00  0.00     0.038 A 
ATOM      2  C2   11 d         -10.327 208.061 112.211  0.00  0.00     0.061 A 
ATOM      3  N1   11 d         -11.372 207.533 112.881  0.00  0.00    -0.323 N 
ATOM      4  C3   11 d         -12.260 206.999 112.007  0.00  0.00     0.013 A 
ATOM      5  C4   11 d         -11.721 207.148 110.736  0.00  0.00     0.027 A 
ATOM      6  C5   11 d         -10.522 207.831 110.856  0.00  0.00     0.034 A 
ATOM      7  C6   11 d         -13.466 206.168 112.331  0.00  0.00     0.068 C 
ATOM      8  C7   11 d         -11.449 207.582 114.238  0.00  0.00     0.114 A 
ATOM      9  C8   11 d         -10.414 208.218 114.941  0.00  0.00     0.109 A 
ATOM     10  N2   11 d          -9.338 208.791 114.278  0.00  0.00    -0.350 N 
ENDROOT
BRANCH  10  11
ATOM     11  C9   11 d          -8.270 209.491 115.045  0.00  0.00     0.206 C 
BRANCH  11  12
ATOM     12  C10  11 d          -7.282 208.683 115.866  0.00  0.00     0.141 C 
ATOM     13  O1   11 d          -7.547 208.398 117.063  0.00  0.00    -0.297 OA
ATOM     14  C11  11 d          -6.013 208.166 115.257  0.00  0.00     0.092 C 
ENDBRANCH  11  12
ENDBRANCH  10  11
BRANCH   1  15
ATOM     15  C12  11 d          -8.155 209.346 112.062  0.00  0.00     0.055 C 
ATOM     16  C13  11 d          -7.006 208.375 111.804  0.00  0.00     0.011 C 
ENDBRANCH   1  15
TORSDOF 3
ENDMDL
