MODEL 1
REMARK VINA RESULT:      -9.2      0.000      0.000
REMARK  0 active torsions:
REMARK  status: ('A' for Active; 'I' for Inactive)
ROOT
ATOM      1  C1   11 d          -8.072 208.875 114.775  0.00  0.00     0.309 A 
ATOM      2  C2   11 d          -9.345 208.501 114.252  0.00  0.00     0.112 A 
ATOM      3  C3   11 d          -9.542 208.152 112.954  0.00  0.00     0.095 A 
ATOM      4  C4   11 d         -10.888 207.817 112.645  0.00  0.00     0.031 A 
ATOM      5  C5   11 d         -11.673 207.938 113.788  0.00  0.00     0.111 A 
ATOM      6  N1   11 d         -12.995 207.701 113.881  0.00  0.00    -0.244 NA
ATOM      7  C6   11 d         -13.581 207.309 112.725  0.00  0.00     0.047 A 
ATOM      8  C7   11 d         -12.915 207.157 111.509  0.00  0.00    -0.009 A 
ATOM      9  C8   11 d         -11.540 207.408 111.465  0.00  0.00     0.028 A 
ATOM     10  C9   11 d         -13.638 206.671 110.283  0.00  0.00     0.209 C 
ATOM     11  O1   11 d         -15.061 206.688 110.395  0.00  0.00    -0.376 OA
ATOM     12  C10  11 d         -15.574 206.192 111.643  0.00  0.00     0.059 C 
ATOM     13  C11  11 d         -15.071 207.087 112.785  0.00  0.00     0.097 C 
ATOM     14  C12  11 d         -15.091 204.780 111.859  0.00  0.00     0.046 C 
ATOM     15  C13  11 d         -17.081 206.211 111.613  0.00  0.00     0.046 C 
ATOM     16  S1   11 d         -10.776 208.439 115.158  0.00  0.00    -0.061 SA
ATOM     17  N2   11 d          -8.494 208.136 112.038  0.00  0.00    -0.227 NA
ATOM     18  C14  11 d          -7.354 208.477 112.556  0.00  0.00     0.146 A 
ATOM     19  O2   11 d          -7.075 208.845 113.837  0.00  0.00    -0.260 OA
ATOM     20  C15  11 d          -6.276 208.431 111.541  0.00  0.00     0.100 C 
ATOM     21  O3   11 d          -7.998 209.170 115.948  0.00  0.00    -0.258 OA
ENDROOT
TORSDOF 0
ENDMDL
MODEL 2
REMARK VINA RESULT:      -8.2      1.741      7.240
REMARK  0 active torsions:
REMARK  status: ('A' for Active; 'I' for Inactive)
ROOT
ATOM      1  C1   11 d         -14.005 206.228 111.348  0.00  0.00     0.309 A 
ATOM      2  C2   11 d         -12.780 206.817 111.781  0.00  0.00     0.112 A 
ATOM      3  C3   11 d         -12.491 207.057 113.087  0.00  0.00     0.095 A 
ATOM      4  C4   11 d         -11.218 207.651 113.296  0.00  0.00     0.031 A 
ATOM      5  C5   11 d         -10.583 207.836 112.071  0.00  0.00     0.111 A 
ATOM      6  N1   11 d          -9.362 208.370 111.874  0.00  0.00    -0.244 NA
ATOM      7  C6   11 d          -8.724 208.751 113.005  0.00  0.00     0.047 A 
ATOM      8  C7   11 d          -9.248 208.632 114.291  0.00  0.00    -0.009 A 
ATOM      9  C8   11 d         -10.517 208.064 114.446  0.00  0.00     0.028 A 
ATOM     10  C9   11 d          -8.447 209.040 115.497  0.00  0.00     0.209 C 
ATOM     11  O1   11 d          -7.289 209.819 115.197  0.00  0.00    -0.376 OA
ATOM     12  C10  11 d          -6.516 209.345 114.083  0.00  0.00     0.059 C 
ATOM     13  C11  11 d          -7.377 209.401 112.812  0.00  0.00     0.097 C 
ATOM     14  C12  11 d          -6.085 207.923 114.338  0.00  0.00     0.046 C 
ATOM     15  C13  11 d          -5.299 210.217 113.906  0.00  0.00     0.046 C 
ATOM     16  S1   11 d         -11.526 207.298 110.747  0.00  0.00    -0.061 SA
ATOM     17  N2   11 d         -13.389 206.734 114.101  0.00  0.00    -0.227 NA
ATOM     18  C14  11 d         -14.486 206.198 113.664  0.00  0.00     0.146 A 
ATOM     19  O2   11 d         -14.853 205.931 112.380  0.00  0.00    -0.260 OA
ATOM     20  C15  11 d         -15.396 205.865 114.785  0.00  0.00     0.100 C 
ATOM     21  O3   11 d         -14.169 206.054 110.160  0.00  0.00    -0.258 OA
ENDROOT
TORSDOF 0
ENDMDL
MODEL 3
REMARK VINA RESULT:      -8.2      3.439      4.188
REMARK  0 active torsions:
REMARK  status: ('A' for Active; 'I' for Inactive)
ROOT
ATOM      1  C1   11 d         -10.902 206.232 119.390  0.00  0.00     0.309 A 
ATOM      2  C2   11 d         -11.740 206.283 118.237  0.00  0.00     0.112 A 
ATOM      3  C3   11 d         -11.365 206.871 117.071  0.00  0.00     0.095 A 
ATOM      4  C4   11 d         -12.353 206.810 116.051  0.00  0.00     0.031 A 
ATOM      5  C5   11 d         -13.477 206.143 116.530  0.00  0.00     0.111 A 
ATOM      6  N1   11 d         -14.611 205.893 115.848  0.00  0.00    -0.244 NA
ATOM      7  C6   11 d         -14.616 206.352 114.574  0.00  0.00     0.047 A 
ATOM      8  C7   11 d         -13.564 207.042 113.974  0.00  0.00    -0.009 A 
ATOM      9  C8   11 d         -12.404 207.271 114.721  0.00  0.00     0.028 A 
ATOM     10  C9   11 d         -13.639 207.474 112.535  0.00  0.00     0.209 C 
ATOM     11  O1   11 d         -14.947 207.401 111.968  0.00  0.00    -0.376 OA
ATOM     12  C10  11 d         -15.675 206.203 112.284  0.00  0.00     0.059 C 
ATOM     13  C11  11 d         -15.893 206.133 113.803  0.00  0.00     0.097 C 
ATOM     14  C12  11 d         -14.887 205.001 111.830  0.00  0.00     0.046 C 
ATOM     15  C13  11 d         -17.010 206.225 111.583  0.00  0.00     0.046 C 
ATOM     16  S1   11 d         -13.302 205.629 118.154  0.00  0.00    -0.061 SA
ATOM     17  N2   11 d         -10.116 207.469 116.927  0.00  0.00    -0.227 NA
ATOM     18  C14  11 d          -9.386 207.396 117.996  0.00  0.00     0.146 A 
ATOM     19  O2   11 d          -9.688 206.834 119.199  0.00  0.00    -0.260 OA
ATOM     20  C15  11 d          -8.067 208.037 117.781  0.00  0.00     0.100 C 
ATOM     21  O3   11 d         -11.327 205.685 120.384  0.00  0.00    -0.258 OA
ENDROOT
TORSDOF 0
ENDMDL
MODEL 4
REMARK VINA RESULT:      -8.2      3.288      7.132
REMARK  0 active torsions:
REMARK  status: ('A' for Active; 'I' for Inactive)
ROOT
ATOM      1  C1   11 d         -14.429 206.783 110.406  0.00  0.00     0.309 A 
ATOM      2  C2   11 d         -13.837 206.981 111.688  0.00  0.00     0.112 A 
ATOM      3  C3   11 d         -14.556 207.029 112.840  0.00  0.00     0.095 A 
ATOM      4  C4   11 d         -13.769 207.238 114.004  0.00  0.00     0.031 A 
ATOM      5  C5   11 d         -12.427 207.340 113.647  0.00  0.00     0.111 A 
ATOM      6  N1   11 d         -11.388 207.536 114.482  0.00  0.00    -0.244 NA
ATOM      7  C6   11 d         -11.727 207.640 115.788  0.00  0.00     0.047 A 
ATOM      8  C7   11 d         -13.029 207.566 116.280  0.00  0.00    -0.009 A 
ATOM      9  C8   11 d         -14.074 207.353 115.374  0.00  0.00     0.028 A 
ATOM     10  C9   11 d         -13.308 207.644 117.756  0.00  0.00     0.209 C 
ATOM     11  O1   11 d         -12.205 208.102 118.539  0.00  0.00    -0.376 OA
ATOM     12  C10  11 d         -10.936 207.525 118.187  0.00  0.00     0.059 C 
ATOM     13  C11  11 d         -10.591 207.913 116.741  0.00  0.00     0.097 C 
ATOM     14  C12  11 d         -11.016 206.024 118.301  0.00  0.00     0.046 C 
ATOM     15  C13  11 d          -9.871 208.046 119.118  0.00  0.00     0.046 C 
ATOM     16  S1   11 d         -12.176 207.184 111.960  0.00  0.00    -0.061 SA
ATOM     17  N2   11 d         -15.941 206.883 112.839  0.00  0.00    -0.227 NA
ATOM     18  C14  11 d         -16.437 206.701 111.654  0.00  0.00     0.146 A 
ATOM     19  O2   11 d         -15.789 206.646 110.457  0.00  0.00    -0.260 OA
ATOM     20  C15  11 d         -17.909 206.540 111.715  0.00  0.00     0.100 C 
ATOM     21  O3   11 d         -13.701 206.755 109.437  0.00  0.00    -0.258 OA
ENDROOT
TORSDOF 0
ENDMDL
MODEL 5
REMARK VINA RESULT:      -8.2      1.785      2.192
REMARK  0 active torsions:
REMARK  status: ('A' for Active; 'I' for Inactive)
ROOT
ATOM      1  C1   11 d          -9.054 208.022 117.298  0.00  0.00     0.309 A 
ATOM      2  C2   11 d         -10.204 207.745 116.502  0.00  0.00     0.112 A 
ATOM      3  C3   11 d         -10.313 208.111 115.198  0.00  0.00     0.095 A 
ATOM      4  C4   11 d         -11.543 207.739 114.595  0.00  0.00     0.031 A 
ATOM      5  C5   11 d         -12.338 207.076 115.526  0.00  0.00     0.111 A 
ATOM      6  N1   11 d         -13.570 206.575 115.316  0.00  0.00    -0.244 NA
ATOM      7  C6   11 d         -14.046 206.754 114.061  0.00  0.00     0.047 A 
ATOM      8  C7   11 d         -13.360 207.407 113.038  0.00  0.00    -0.009 A 
ATOM      9  C8   11 d         -12.080 207.904 113.303  0.00  0.00     0.028 A 
ATOM     10  C9   11 d         -13.947 207.519 111.658  0.00  0.00     0.209 C 
ATOM     11  O1   11 d         -15.336 207.196 111.583  0.00  0.00    -0.376 OA
ATOM     12  C10  11 d         -15.723 206.023 112.317  0.00  0.00     0.059 C 
ATOM     13  C11  11 d         -15.444 206.250 113.811  0.00  0.00     0.097 C 
ATOM     14  C12  11 d         -14.928 204.839 111.829  0.00  0.00     0.046 C 
ATOM     15  C13  11 d         -17.194 205.762 112.112  0.00  0.00     0.046 C 
ATOM     16  S1   11 d         -11.585 206.933 117.057  0.00  0.00    -0.061 SA
ATOM     17  N2   11 d          -9.286 208.790 114.546  0.00  0.00    -0.227 NA
ATOM     18  C14  11 d          -8.258 209.017 115.304  0.00  0.00     0.146 A 
ATOM     19  O2   11 d          -8.075 208.691 116.614  0.00  0.00    -0.260 OA
ATOM     20  C15  11 d          -7.196 209.730 114.557  0.00  0.00     0.100 C 
ATOM     21  O3   11 d          -9.053 207.654 118.452  0.00  0.00    -0.258 OA
ENDROOT
TORSDOF 0
ENDMDL
MODEL 6
REMARK VINA RESULT:      -8.0      3.679      6.165
REMARK  0 active torsions:
REMARK  status: ('A' for Active; 'I' for Inactive)
ROOT
ATOM      1  C1   11 d         -14.401 206.877 110.333  0.00  0.00     0.309 A 
ATOM      2  C2   11 d         -14.240 206.648 111.731  0.00  0.00     0.112 A 
ATOM      3  C3   11 d         -13.045 206.758 112.370  0.00  0.00     0.095 A 
ATOM      4  C4   11 d         -13.109 206.485 113.763  0.00  0.00     0.031 A 
ATOM      5  C5   11 d         -14.418 206.168 114.117  0.00  0.00     0.111 A 
ATOM      6  N1   11 d         -14.861 205.854 115.349  0.00  0.00    -0.244 NA
ATOM      7  C6   11 d         -13.907 205.860 116.310  0.00  0.00     0.047 A 
ATOM      8  C7   11 d         -12.561 206.149 116.091  0.00  0.00    -0.009 A 
ATOM      9  C8   11 d         -12.150 206.476 114.795  0.00  0.00     0.028 A 
ATOM     10  C9   11 d         -11.578 206.178 117.229  0.00  0.00     0.209 C 
ATOM     11  O1   11 d         -12.063 205.595 118.439  0.00  0.00    -0.376 OA
ATOM     12  C10  11 d         -13.409 205.959 118.786  0.00  0.00     0.059 C 
ATOM     13  C11  11 d         -14.364 205.461 117.690  0.00  0.00     0.097 C 
ATOM     14  C12  11 d         -13.511 207.459 118.901  0.00  0.00     0.046 C 
ATOM     15  C13  11 d         -13.779 205.326 120.104  0.00  0.00     0.046 C 
ATOM     16  S1   11 d         -15.493 206.211 112.785  0.00  0.00    -0.061 SA
ATOM     17  N2   11 d         -11.885 207.109 111.686  0.00  0.00    -0.227 NA
ATOM     18  C14  11 d         -12.077 207.312 110.419  0.00  0.00     0.146 A 
ATOM     19  O2   11 d         -13.233 207.217 109.705  0.00  0.00    -0.260 OA
ATOM     20  C15  11 d         -10.813 207.694 109.746  0.00  0.00     0.100 C 
ATOM     21  O3   11 d         -15.508 206.754 109.856  0.00  0.00    -0.258 OA
ENDROOT
TORSDOF 0
ENDMDL
MODEL 7
REMARK VINA RESULT:      -7.9      2.829      6.617
REMARK  0 active torsions:
REMARK  status: ('A' for Active; 'I' for Inactive)
ROOT
ATOM      1  C1   11 d         -12.139 207.377 110.188  0.00  0.00     0.309 A 
ATOM      2  C2   11 d         -11.790 207.561 111.558  0.00  0.00     0.112 A 
ATOM      3  C3   11 d         -12.650 207.323 112.583  0.00  0.00     0.095 A 
ATOM      4  C4   11 d         -12.100 207.574 113.868  0.00  0.00     0.031 A 
ATOM      5  C5   11 d         -10.785 208.010 113.736  0.00  0.00     0.111 A 
ATOM      6  N1   11 d          -9.945 208.341 114.735  0.00  0.00    -0.244 NA
ATOM      7  C6   11 d         -10.472 208.224 115.976  0.00  0.00     0.047 A 
ATOM      8  C7   11 d         -11.775 207.809 116.250  0.00  0.00    -0.009 A 
ATOM      9  C8   11 d         -12.607 207.468 115.178  0.00  0.00     0.028 A 
ATOM     10  C9   11 d         -12.262 207.662 117.666  0.00  0.00     0.209 C 
ATOM     11  O1   11 d         -11.415 208.266 118.644  0.00  0.00    -0.376 OA
ATOM     12  C10  11 d         -10.011 208.029 118.454  0.00  0.00     0.059 C 
ATOM     13  C11  11 d          -9.573 208.638 117.114  0.00  0.00     0.097 C 
ATOM     14  C12  11 d          -9.748 206.544 118.442  0.00  0.00     0.046 C 
ATOM     15  C13  11 d          -9.235 208.669 119.577  0.00  0.00     0.046 C 
ATOM     16  S1   11 d         -10.278 208.099 112.102  0.00  0.00    -0.061 SA
ATOM     17  N2   11 d         -13.948 206.873 112.353  0.00  0.00    -0.227 NA
ATOM     18  C14  11 d         -14.221 206.714 111.095  0.00  0.00     0.146 A 
ATOM     19  O2   11 d         -13.423 206.935 110.014  0.00  0.00    -0.260 OA
ATOM     20  C15  11 d         -15.607 206.224 110.912  0.00  0.00     0.100 C 
ATOM     21  O3   11 d         -11.301 207.617 109.346  0.00  0.00    -0.258 OA
ENDROOT
TORSDOF 0
ENDMDL
MODEL 8
REMARK VINA RESULT:      -7.8      4.288      6.104
REMARK  0 active torsions:
REMARK  status: ('A' for Active; 'I' for Inactive)
ROOT
ATOM      1  C1   11 d         -12.829 206.652 111.336  0.00  0.00     0.309 A 
ATOM      2  C2   11 d         -12.986 206.418 112.733  0.00  0.00     0.112 A 
ATOM      3  C3   11 d         -12.091 206.844 113.664  0.00  0.00     0.095 A 
ATOM      4  C4   11 d         -12.440 206.502 114.998  0.00  0.00     0.031 A 
ATOM      5  C5   11 d         -13.643 205.803 115.001  0.00  0.00     0.111 A 
ATOM      6  N1   11 d         -14.287 205.320 116.081  0.00  0.00    -0.244 NA
ATOM      7  C6   11 d         -13.669 205.561 117.260  0.00  0.00     0.047 A 
ATOM      8  C7   11 d         -12.459 206.239 117.399  0.00  0.00    -0.009 A 
ATOM      9  C8   11 d         -11.832 206.729 116.248  0.00  0.00     0.028 A 
ATOM     10  C9   11 d         -11.867 206.503 118.756  0.00  0.00     0.209 C 
ATOM     11  O1   11 d         -12.463 205.751 119.813  0.00  0.00    -0.376 OA
ATOM     12  C10  11 d         -13.898 205.691 119.774  0.00  0.00     0.059 C 
ATOM     13  C11  11 d         -14.338 204.986 118.483  0.00  0.00     0.097 C 
ATOM     14  C12  11 d         -14.461 207.090 119.802  0.00  0.00     0.046 C 
ATOM     15  C13  11 d         -14.403 204.920 120.968  0.00  0.00     0.046 C 
ATOM     16  S1   11 d         -14.290 205.589 113.430  0.00  0.00    -0.061 SA
ATOM     17  N2   11 d         -10.946 207.548 113.302  0.00  0.00    -0.227 NA
ATOM     18  C14  11 d         -10.845 207.742 112.023  0.00  0.00     0.146 A 
ATOM     19  O2   11 d         -11.689 207.345 111.030  0.00  0.00    -0.260 OA
ATOM     20  C15  11 d          -9.617 208.505 111.699  0.00  0.00     0.100 C 
ATOM     21  O3   11 d         -13.682 206.232 110.585  0.00  0.00    -0.258 OA
ENDROOT
TORSDOF 0
ENDMDL
MODEL 9
REMARK VINA RESULT:      -7.4      2.924      7.047
REMARK  0 active torsions:
REMARK  status: ('A' for Active; 'I' for Inactive)
ROOT
ATOM      1  C1   11 d         -16.477 205.967 112.176  0.00  0.00     0.309 A 
ATOM      2  C2   11 d         -15.433 206.144 113.130  0.00  0.00     0.112 A 
ATOM      3  C3   11 d         -14.256 206.758 112.839  0.00  0.00     0.095 A 
ATOM      4  C4   11 d         -13.354 206.826 113.934  0.00  0.00     0.031 A 
ATOM      5  C5   11 d         -13.931 206.228 115.051  0.00  0.00     0.111 A 
ATOM      6  N1   11 d         -13.376 206.105 116.272  0.00  0.00    -0.244 NA
ATOM      7  C6   11 d         -12.132 206.630 116.381  0.00  0.00     0.047 A 
ATOM      8  C7   11 d         -11.436 207.246 115.342  0.00  0.00    -0.009 A 
ATOM      9  C8   11 d         -12.059 207.356 114.094  0.00  0.00     0.028 A 
ATOM     10  C9   11 d         -10.075 207.844 115.566  0.00  0.00     0.209 C 
ATOM     11  O1   11 d          -9.457 207.455 116.793  0.00  0.00    -0.376 OA
ATOM     12  C10  11 d         -10.327 207.472 117.937  0.00  0.00     0.059 C 
ATOM     13  C11  11 d         -11.463 206.461 117.721  0.00  0.00     0.097 C 
ATOM     14  C12  11 d         -10.908 208.853 118.107  0.00  0.00     0.046 C 
ATOM     15  C13  11 d          -9.546 207.098 119.171  0.00  0.00     0.046 C 
ATOM     16  S1   11 d         -15.502 205.621 114.741  0.00  0.00    -0.061 SA
ATOM     17  N2   11 d         -13.995 207.264 111.568  0.00  0.00    -0.227 NA
ATOM     18  C14  11 d         -14.972 207.086 110.734  0.00  0.00     0.146 A 
ATOM     19  O2   11 d         -16.173 206.478 110.943  0.00  0.00    -0.260 OA
ATOM     20  C15  11 d         -14.643 207.653 109.405  0.00  0.00     0.100 C 
ATOM     21  O3   11 d         -17.490 205.406 112.532  0.00  0.00    -0.258 OA
ENDROOT
TORSDOF 0
ENDMDL
MODEL 10
REMARK VINA RESULT:      -7.3      1.894      6.946
REMARK  0 active torsions:
REMARK  status: ('A' for Active; 'I' for Inactive)
ROOT
ATOM      1  C1   11 d         -14.517 207.431 113.575  0.00  0.00     0.309 A 
ATOM      2  C2   11 d         -13.149 207.672 113.895  0.00  0.00     0.112 A 
ATOM      3  C3   11 d         -12.152 207.640 112.972  0.00  0.00     0.095 A 
ATOM      4  C4   11 d         -10.863 207.906 113.506  0.00  0.00     0.031 A 
ATOM      5  C5   11 d         -10.963 208.138 114.875  0.00  0.00     0.111 A 
ATOM      6  N1   11 d          -9.952 208.425 115.716  0.00  0.00    -0.244 NA
ATOM      7  C6   11 d          -8.732 208.485 115.131  0.00  0.00     0.047 A 
ATOM      8  C7   11 d          -8.489 208.265 113.776  0.00  0.00    -0.009 A 
ATOM      9  C8   11 d          -9.574 207.978 112.941  0.00  0.00     0.028 A 
ATOM     10  C9   11 d          -7.105 208.399 113.203  0.00  0.00     0.209 C 
ATOM     11  O1   11 d          -6.067 208.451 114.182  0.00  0.00    -0.376 OA
ATOM     12  C10  11 d          -6.345 209.296 115.311  0.00  0.00     0.059 C 
ATOM     13  C11  11 d          -7.572 208.752 116.057  0.00  0.00     0.097 C 
ATOM     14  C12  11 d          -6.625 210.698 114.833  0.00  0.00     0.046 C 
ATOM     15  C13  11 d          -5.155 209.307 116.237  0.00  0.00     0.046 C 
ATOM     16  S1   11 d         -12.573 208.027 115.450  0.00  0.00    -0.061 SA
ATOM     17  N2   11 d         -12.411 207.367 111.632  0.00  0.00    -0.227 NA
ATOM     18  C14  11 d         -13.667 207.159 111.384  0.00  0.00     0.146 A 
ATOM     19  O2   11 d         -14.720 207.166 112.247  0.00  0.00    -0.260 OA
ATOM     20  C15  11 d         -13.884 206.885 109.944  0.00  0.00     0.100 C 
ATOM     21  O3   11 d         -15.333 207.482 114.469  0.00  0.00    -0.258 OA
ENDROOT
TORSDOF 0
ENDMDL
