MODEL 1
REMARK VINA RESULT:      -7.6      0.000      0.000
REMARK  8 active torsions:
REMARK  status: ('A' for Active; 'I' for Inactive)
REMARK    1  A    between atoms: C2_3  and  N5_16 
REMARK    2  A    between atoms: C3_4  and  N3_7 
REMARK       I    between atoms: N3_7  and  C5_8 
REMARK       I    between atoms: C5_8  and  N4_10 
REMARK    3  A    between atoms: N4_10  and  C6_11 
REMARK    4  A    between atoms: C6_11  and  C7_12 
REMARK    5  A    between atoms: C7_12  and  O2_13 
REMARK       I    between atoms: N5_16  and  C10_17 
REMARK       I    between atoms: C10_17  and  N6_19 
REMARK    6  A    between atoms: N6_19  and  C11_20 
REMARK    7  A    between atoms: C11_20  and  C12_21 
REMARK    8  A    between atoms: C12_21  and  O4_22 
ROOT
ATOM      1  C1   11 d         -12.128 206.421 118.629  0.00  0.00     0.323 C 
ATOM      2  N1   11 d         -13.225 206.016 117.865  0.00  0.00    -0.313 N 
ATOM      3  C2   11 d         -13.285 206.818 116.614  0.00  0.00     0.235 C 
ATOM      4  C3   11 d         -12.018 207.732 116.676  0.00  0.00     0.235 C 
ATOM      5  N2   11 d         -11.442 207.474 118.020  0.00  0.00    -0.313 N 
ATOM      6  C4   11 d         -10.304 208.232 118.607  0.00  0.00     0.157 C 
ATOM      7  C15  11 d         -14.182 204.947 118.253  0.00  0.00     0.157 C 
ATOM      8  O5   11 d         -11.785 205.882 119.738  0.00  0.00    -0.247 OA
ENDROOT
BRANCH   3   9
ATOM      9  N5   11 d         -13.333 205.928 115.416  0.00  0.00    -0.318 N 
ATOM     10  C10  11 d         -14.096 206.276 114.275  0.00  0.00     0.318 C 
ATOM     11  O3   11 d         -14.781 207.359 114.272  0.00  0.00    -0.247 OA
ATOM     12  N6   11 d         -14.083 205.415 113.139  0.00  0.00    -0.333 N 
ATOM     13  H18  11 d         -13.489 204.523 113.226  0.00  0.00     0.165 HD
ATOM     14  H17  11 d         -12.768 205.016 115.416  0.00  0.00     0.166 HD
BRANCH  12  15
ATOM     15  C11  11 d         -14.823 205.670 111.849  0.00  0.00     0.048 C 
ATOM     16  C13  11 d         -14.503 204.544 110.843  0.00  0.00     0.040 C 
ATOM     17  C14  11 d         -14.439 207.048 111.267  0.00  0.00     0.040 C 
BRANCH  15  18
ATOM     18  C12  11 d         -16.345 205.661 112.159  0.00  0.00     0.194 C 
BRANCH  18  19
ATOM     19  O4   11 d         -16.921 206.990 112.211  0.00  0.00    -0.398 OA
ATOM     20  H21  11 d         -17.885 206.896 112.580  0.00  0.00     0.209 HD
ENDBRANCH  18  19
ENDBRANCH  15  18
ENDBRANCH  12  15
ENDBRANCH   3   9
BRANCH   4  21
ATOM     21  N3   11 d         -10.967 207.415 115.660  0.00  0.00    -0.318 N 
ATOM     22  C5   11 d         -10.205 208.430 115.024  0.00  0.00     0.318 C 
ATOM     23  O1   11 d         -10.401 209.658 115.324  0.00  0.00    -0.247 OA
ATOM     24  N4   11 d          -9.230 208.051 114.056  0.00  0.00    -0.333 N 
ATOM     25  H7   11 d          -9.144 206.997 113.864  0.00  0.00     0.165 HD
ATOM     26  H6   11 d         -10.777 206.392 115.401  0.00  0.00     0.166 HD
BRANCH  24  27
ATOM     27  C6   11 d          -8.316 208.991 113.305  0.00  0.00     0.048 C 
ATOM     28  C8   11 d          -7.583 209.846 114.354  0.00  0.00     0.040 C 
ATOM     29  C9   11 d          -9.071 209.898 112.304  0.00  0.00     0.040 C 
BRANCH  27  30
ATOM     30  C7   11 d          -7.298 208.126 112.513  0.00  0.00     0.194 C 
BRANCH  30  31
ATOM     31  O2   11 d          -6.896 208.725 111.258  0.00  0.00    -0.398 OA
ATOM     32  H10  11 d          -6.740 207.954 110.582  0.00  0.00     0.209 HD
ENDBRANCH  30  31
ENDBRANCH  27  30
ENDBRANCH  24  27
ENDBRANCH   4  21
TORSDOF 8
ENDMDL
MODEL 2
REMARK VINA RESULT:      -7.2      2.597      6.524
REMARK  8 active torsions:
REMARK  status: ('A' for Active; 'I' for Inactive)
REMARK    1  A    between atoms: C2_3  and  N5_16 
REMARK    2  A    between atoms: C3_4  and  N3_7 
REMARK       I    between atoms: N3_7  and  C5_8 
REMARK       I    between atoms: C5_8  and  N4_10 
REMARK    3  A    between atoms: N4_10  and  C6_11 
REMARK    4  A    between atoms: C6_11  and  C7_12 
REMARK    5  A    between atoms: C7_12  and  O2_13 
REMARK       I    between atoms: N5_16  and  C10_17 
REMARK       I    between atoms: C10_17  and  N6_19 
REMARK    6  A    between atoms: N6_19  and  C11_20 
REMARK    7  A    between atoms: C11_20  and  C12_21 
REMARK    8  A    between atoms: C12_21  and  O4_22 
ROOT
ATOM      1  C1   11 d         -11.284 207.491 117.499  0.00  0.00     0.323 C 
ATOM      2  N1   11 d         -11.607 207.550 116.141  0.00  0.00    -0.313 N 
ATOM      3  C2   11 d         -12.326 206.311 115.744  0.00  0.00     0.235 C 
ATOM      4  C3   11 d         -12.471 205.502 117.075  0.00  0.00     0.235 C 
ATOM      5  N2   11 d         -11.692 206.282 118.068  0.00  0.00    -0.313 N 
ATOM      6  C4   11 d         -11.404 205.828 119.455  0.00  0.00     0.157 C 
ATOM      7  C15  11 d         -11.275 208.684 115.239  0.00  0.00     0.157 C 
ATOM      8  O5   11 d         -10.704 208.433 118.143  0.00  0.00    -0.247 OA
ENDROOT
BRANCH   3   9
ATOM      9  N5   11 d         -13.627 206.640 115.089  0.00  0.00    -0.318 N 
ATOM     10  C10  11 d         -13.863 206.327 113.729  0.00  0.00     0.318 C 
ATOM     11  O3   11 d         -12.939 205.775 113.033  0.00  0.00    -0.247 OA
ATOM     12  N6   11 d         -15.133 206.625 113.155  0.00  0.00    -0.333 N 
ATOM     13  H18  11 d         -15.849 207.095 113.804  0.00  0.00     0.165 HD
ATOM     14  H17  11 d         -14.401 207.110 115.665  0.00  0.00     0.166 HD
BRANCH  12  15
ATOM     15  C11  11 d         -15.533 206.324 111.732  0.00  0.00     0.048 C 
ATOM     16  C13  11 d         -15.093 204.890 111.368  0.00  0.00     0.040 C 
ATOM     17  C14  11 d         -14.908 207.350 110.762  0.00  0.00     0.040 C 
BRANCH  15  18
ATOM     18  C12  11 d         -17.081 206.422 111.639  0.00  0.00     0.194 C 
BRANCH  18  19
ATOM     19  O4   11 d         -17.761 205.624 112.638  0.00  0.00    -0.398 OA
ATOM     20  H21  11 d         -17.405 204.654 112.557  0.00  0.00     0.209 HD
ENDBRANCH  18  19
ENDBRANCH  15  18
ENDBRANCH  12  15
ENDBRANCH   3   9
BRANCH   4  21
ATOM     21  N3   11 d         -13.871 205.383 117.585  0.00  0.00    -0.318 N 
ATOM     22  C5   11 d         -14.507 204.125 117.751  0.00  0.00     0.318 C 
ATOM     23  O1   11 d         -13.874 203.047 117.472  0.00  0.00    -0.247 OA
ATOM     24  N4   11 d         -15.849 204.091 118.230  0.00  0.00    -0.333 N 
ATOM     25  H7   11 d         -16.301 205.045 118.429  0.00  0.00     0.165 HD
ATOM     26  H6   11 d         -14.418 206.271 117.837  0.00  0.00     0.166 HD
BRANCH  24  27
ATOM     27  C6   11 d         -16.665 202.846 118.491  0.00  0.00     0.048 C 
ATOM     28  C8   11 d         -16.325 202.369 119.914  0.00  0.00     0.040 C 
ATOM     29  C9   11 d         -16.394 201.719 117.466  0.00  0.00     0.040 C 
BRANCH  27  30
ATOM     30  C7   11 d         -18.166 203.239 118.403  0.00  0.00     0.194 C 
BRANCH  30  31
ATOM     31  O2   11 d         -18.647 203.350 117.042  0.00  0.00    -0.398 OA
ATOM     32  H10  11 d         -18.122 202.661 116.472  0.00  0.00     0.209 HD
ENDBRANCH  30  31
ENDBRANCH  27  30
ENDBRANCH  24  27
ENDBRANCH   4  21
TORSDOF 8
ENDMDL
MODEL 3
REMARK VINA RESULT:      -7.0      1.798      5.773
REMARK  8 active torsions:
REMARK  status: ('A' for Active; 'I' for Inactive)
REMARK    1  A    between atoms: C2_3  and  N5_16 
REMARK    2  A    between atoms: C3_4  and  N3_7 
REMARK       I    between atoms: N3_7  and  C5_8 
REMARK       I    between atoms: C5_8  and  N4_10 
REMARK    3  A    between atoms: N4_10  and  C6_11 
REMARK    4  A    between atoms: C6_11  and  C7_12 
REMARK    5  A    between atoms: C7_12  and  O2_13 
REMARK       I    between atoms: N5_16  and  C10_17 
REMARK       I    between atoms: C10_17  and  N6_19 
REMARK    6  A    between atoms: N6_19  and  C11_20 
REMARK    7  A    between atoms: C11_20  and  C12_21 
REMARK    8  A    between atoms: C12_21  and  O4_22 
ROOT
ATOM      1  C1   11 d          -8.286 208.856 115.002  0.00  0.00     0.323 C 
ATOM      2  N1   11 d          -8.846 208.363 116.182  0.00  0.00    -0.313 N 
ATOM      3  C2   11 d         -10.321 208.250 116.027  0.00  0.00     0.235 C 
ATOM      4  C3   11 d         -10.588 208.676 114.546  0.00  0.00     0.235 C 
ATOM      5  N2   11 d          -9.268 209.133 114.048  0.00  0.00    -0.313 N 
ATOM      6  C4   11 d          -9.046 209.783 112.728  0.00  0.00     0.157 C 
ATOM      7  C15  11 d          -8.076 208.009 117.404  0.00  0.00     0.157 C 
ATOM      8  O5   11 d          -7.030 209.016 114.813  0.00  0.00    -0.247 OA
ENDROOT
BRANCH   3   9
ATOM      9  N5   11 d         -10.784 206.869 116.355  0.00  0.00    -0.318 N 
ATOM     10  C10  11 d         -12.112 206.623 116.780  0.00  0.00     0.318 C 
ATOM     11  O3   11 d         -12.929 207.602 116.916  0.00  0.00    -0.247 OA
ATOM     12  N6   11 d         -12.522 205.285 117.047  0.00  0.00    -0.333 N 
ATOM     13  H18  11 d         -11.774 204.524 116.917  0.00  0.00     0.165 HD
ATOM     14  H17  11 d         -10.102 206.048 116.252  0.00  0.00     0.166 HD
BRANCH  12  15
ATOM     15  C11  11 d         -13.907 204.873 117.479  0.00  0.00     0.048 C 
ATOM     16  C13  11 d         -13.978 203.334 117.574  0.00  0.00     0.040 C 
ATOM     17  C14  11 d         -14.967 205.409 116.492  0.00  0.00     0.040 C 
BRANCH  15  18
ATOM     18  C12  11 d         -14.173 205.483 118.883  0.00  0.00     0.194 C 
BRANCH  18  19
ATOM     19  O4   11 d         -14.894 206.739 118.828  0.00  0.00    -0.398 OA
ATOM     20  H21  11 d         -14.225 207.468 118.522  0.00  0.00     0.209 HD
ENDBRANCH  18  19
ENDBRANCH  15  18
ENDBRANCH  12  15
ENDBRANCH   3   9
BRANCH   4  21
ATOM     21  N3   11 d         -11.057 207.572 113.653  0.00  0.00    -0.318 N 
ATOM     22  C5   11 d         -12.411 207.457 113.245  0.00  0.00     0.318 C 
ATOM     23  O1   11 d         -13.271 208.322 113.634  0.00  0.00    -0.247 OA
ATOM     24  N4   11 d         -12.786 206.370 112.403  0.00  0.00    -0.333 N 
ATOM     25  H7   11 d         -11.997 205.691 112.135  0.00  0.00     0.165 HD
ATOM     26  H6   11 d         -10.352 206.842 113.304  0.00  0.00     0.166 HD
BRANCH  24  27
ATOM     27  C6   11 d         -14.169 206.110 111.854  0.00  0.00     0.048 C 
ATOM     28  C8   11 d         -14.103 204.794 111.060  0.00  0.00     0.040 C 
ATOM     29  C9   11 d         -14.688 207.256 110.954  0.00  0.00     0.040 C 
BRANCH  27  30
ATOM     30  C7   11 d         -15.135 205.959 113.062  0.00  0.00     0.194 C 
BRANCH  30  31
ATOM     31  O2   11 d         -16.083 207.047 113.174  0.00  0.00    -0.398 OA
ATOM     32  H10  11 d         -16.749 206.800 113.929  0.00  0.00     0.209 HD
ENDBRANCH  30  31
ENDBRANCH  27  30
ENDBRANCH  24  27
ENDBRANCH   4  21
TORSDOF 8
ENDMDL
MODEL 4
REMARK VINA RESULT:      -6.9      1.835      6.505
REMARK  8 active torsions:
REMARK  status: ('A' for Active; 'I' for Inactive)
REMARK    1  A    between atoms: C2_3  and  N5_16 
REMARK    2  A    between atoms: C3_4  and  N3_7 
REMARK       I    between atoms: N3_7  and  C5_8 
REMARK       I    between atoms: C5_8  and  N4_10 
REMARK    3  A    between atoms: N4_10  and  C6_11 
REMARK    4  A    between atoms: C6_11  and  C7_12 
REMARK    5  A    between atoms: C7_12  and  O2_13 
REMARK       I    between atoms: N5_16  and  C10_17 
REMARK       I    between atoms: C10_17  and  N6_19 
REMARK    6  A    between atoms: N6_19  and  C11_20 
REMARK    7  A    between atoms: C11_20  and  C12_21 
REMARK    8  A    between atoms: C12_21  and  O4_22 
ROOT
ATOM      1  C1   11 d          -9.871 208.367 115.932  0.00  0.00     0.323 C 
ATOM      2  N1   11 d         -10.585 208.096 117.101  0.00  0.00    -0.313 N 
ATOM      3  C2   11 d         -12.032 207.958 116.783  0.00  0.00     0.235 C 
ATOM      4  C3   11 d         -12.103 208.109 115.228  0.00  0.00     0.235 C 
ATOM      5  N2   11 d         -10.720 208.469 114.828  0.00  0.00    -0.313 N 
ATOM      6  C4   11 d         -10.320 208.869 113.452  0.00  0.00     0.157 C 
ATOM      7  C15  11 d          -9.982 207.967 118.454  0.00  0.00     0.157 C 
ATOM      8  O5   11 d          -8.598 208.490 115.878  0.00  0.00    -0.247 OA
ENDROOT
BRANCH   3   9
ATOM      9  N5   11 d         -12.564 206.659 117.291  0.00  0.00    -0.318 N 
ATOM     10  C10  11 d         -13.221 206.575 118.543  0.00  0.00     0.318 C 
ATOM     11  O3   11 d         -13.339 207.624 119.271  0.00  0.00    -0.247 OA
ATOM     12  N6   11 d         -13.747 205.322 118.972  0.00  0.00    -0.333 N 
ATOM     13  H18  11 d         -13.598 204.492 118.307  0.00  0.00     0.165 HD
ATOM     14  H17  11 d         -12.460 205.776 116.690  0.00  0.00     0.166 HD
BRANCH  12  15
ATOM     15  C11  11 d         -14.491 205.091 120.264  0.00  0.00     0.048 C 
ATOM     16  C13  11 d         -13.478 204.944 121.420  0.00  0.00     0.040 C 
ATOM     17  C14  11 d         -15.386 203.838 120.159  0.00  0.00     0.040 C 
BRANCH  15  18
ATOM     18  C12  11 d         -15.390 206.331 120.527  0.00  0.00     0.194 C 
BRANCH  18  19
ATOM     19  O4   11 d         -14.886 207.183 121.585  0.00  0.00    -0.398 OA
ATOM     20  H21  11 d         -15.212 206.787 122.486  0.00  0.00     0.209 HD
ENDBRANCH  18  19
ENDBRANCH  15  18
ENDBRANCH  12  15
ENDBRANCH   3   9
BRANCH   4  21
ATOM     21  N3   11 d         -12.482 206.863 114.495  0.00  0.00    -0.318 N 
ATOM     22  C5   11 d         -13.449 206.865 113.456  0.00  0.00     0.318 C 
ATOM     23  O1   11 d         -14.016 207.961 113.114  0.00  0.00    -0.247 OA
ATOM     24  N4   11 d         -13.768 205.635 112.811  0.00  0.00    -0.333 N 
ATOM     25  H7   11 d         -13.247 204.767 113.172  0.00  0.00     0.165 HD
ATOM     26  H6   11 d         -12.012 205.934 114.755  0.00  0.00     0.166 HD
BRANCH  24  27
ATOM     27  C6   11 d         -14.747 205.459 111.674  0.00  0.00     0.048 C 
ATOM     28  C8   11 d         -14.585 204.020 111.154  0.00  0.00     0.040 C 
ATOM     29  C9   11 d         -14.530 206.473 110.526  0.00  0.00     0.040 C 
BRANCH  27  30
ATOM     30  C7   11 d         -16.177 205.663 112.247  0.00  0.00     0.194 C 
BRANCH  30  31
ATOM     31  O2   11 d         -16.665 207.017 112.091  0.00  0.00    -0.398 OA
ATOM     32  H10  11 d         -16.635 207.242 111.079  0.00  0.00     0.209 HD
ENDBRANCH  30  31
ENDBRANCH  27  30
ENDBRANCH  24  27
ENDBRANCH   4  21
TORSDOF 8
ENDMDL
MODEL 5
REMARK VINA RESULT:      -6.9      2.057      6.071
REMARK  8 active torsions:
REMARK  status: ('A' for Active; 'I' for Inactive)
REMARK    1  A    between atoms: C2_3  and  N5_16 
REMARK    2  A    between atoms: C3_4  and  N3_7 
REMARK       I    between atoms: N3_7  and  C5_8 
REMARK       I    between atoms: C5_8  and  N4_10 
REMARK    3  A    between atoms: N4_10  and  C6_11 
REMARK    4  A    between atoms: C6_11  and  C7_12 
REMARK    5  A    between atoms: C7_12  and  O2_13 
REMARK       I    between atoms: N5_16  and  C10_17 
REMARK       I    between atoms: C10_17  and  N6_19 
REMARK    6  A    between atoms: N6_19  and  C11_20 
REMARK    7  A    between atoms: C11_20  and  C12_21 
REMARK    8  A    between atoms: C12_21  and  O4_22 
ROOT
ATOM      1  C1   11 d         -10.374 208.192 116.000  0.00  0.00     0.323 C 
ATOM      2  N1   11 d         -10.996 207.724 114.841  0.00  0.00    -0.313 N 
ATOM      3  C2   11 d         -11.941 206.629 115.188  0.00  0.00     0.235 C 
ATOM      4  C3   11 d         -11.872 206.537 116.747  0.00  0.00     0.235 C 
ATOM      5  N2   11 d         -10.788 207.476 117.126  0.00  0.00    -0.313 N 
ATOM      6  C4   11 d         -10.243 207.621 118.503  0.00  0.00     0.157 C 
ATOM      7  C15  11 d         -10.743 208.245 113.472  0.00  0.00     0.157 C 
ATOM      8  O5   11 d          -9.544 209.166 116.029  0.00  0.00    -0.247 OA
ENDROOT
BRANCH   3   9
ATOM      9  N5   11 d         -13.307 206.920 114.657  0.00  0.00    -0.318 N 
ATOM     10  C10  11 d         -13.700 206.484 113.369  0.00  0.00     0.318 C 
ATOM     11  O3   11 d         -12.867 205.851 112.629  0.00  0.00    -0.247 OA
ATOM     12  N6   11 d         -15.025 206.751 112.918  0.00  0.00    -0.333 N 
ATOM     13  H18  11 d         -15.658 207.294 113.596  0.00  0.00     0.165 HD
ATOM     14  H17  11 d         -14.005 207.457 115.269  0.00  0.00     0.166 HD
BRANCH  12  15
ATOM     15  C11  11 d         -15.590 206.324 111.585  0.00  0.00     0.048 C 
ATOM     16  C13  11 d         -15.169 204.868 111.293  0.00  0.00     0.040 C 
ATOM     17  C14  11 d         -15.106 207.268 110.463  0.00  0.00     0.040 C 
BRANCH  15  18
ATOM     18  C12  11 d         -17.139 206.400 111.674  0.00  0.00     0.194 C 
BRANCH  18  19
ATOM     19  O4   11 d         -17.680 205.653 112.792  0.00  0.00    -0.398 OA
ATOM     20  H21  11 d         -18.555 205.201 112.469  0.00  0.00     0.209 HD
ENDBRANCH  18  19
ENDBRANCH  15  18
ENDBRANCH  12  15
ENDBRANCH   3   9
BRANCH   4  21
ATOM     21  N3   11 d         -13.117 206.965 117.456  0.00  0.00    -0.318 N 
ATOM     22  C5   11 d         -13.562 206.333 118.646  0.00  0.00     0.318 C 
ATOM     23  O1   11 d         -12.883 205.373 119.151  0.00  0.00    -0.247 OA
ATOM     24  N4   11 d         -14.766 206.789 119.258  0.00  0.00    -0.333 N 
ATOM     25  H7   11 d         -15.271 207.595 118.757  0.00  0.00     0.165 HD
ATOM     26  H6   11 d         -13.697 207.776 117.058  0.00  0.00     0.166 HD
BRANCH  24  27
ATOM     27  C6   11 d         -15.368 206.253 120.535  0.00  0.00     0.048 C 
ATOM     28  C8   11 d         -16.683 207.016 120.773  0.00  0.00     0.040 C 
ATOM     29  C9   11 d         -14.430 206.404 121.756  0.00  0.00     0.040 C 
BRANCH  27  30
ATOM     30  C7   11 d         -15.658 204.741 120.322  0.00  0.00     0.194 C 
BRANCH  30  31
ATOM     31  O2   11 d         -14.627 203.882 120.864  0.00  0.00    -0.398 OA
ATOM     32  H10  11 d         -13.780 204.464 121.003  0.00  0.00     0.209 HD
ENDBRANCH  30  31
ENDBRANCH  27  30
ENDBRANCH  24  27
ENDBRANCH   4  21
TORSDOF 8
ENDMDL
MODEL 6
REMARK VINA RESULT:      -6.7      2.661      7.221
REMARK  8 active torsions:
REMARK  status: ('A' for Active; 'I' for Inactive)
REMARK    1  A    between atoms: C2_3  and  N5_16 
REMARK    2  A    between atoms: C3_4  and  N3_7 
REMARK       I    between atoms: N3_7  and  C5_8 
REMARK       I    between atoms: C5_8  and  N4_10 
REMARK    3  A    between atoms: N4_10  and  C6_11 
REMARK    4  A    between atoms: C6_11  and  C7_12 
REMARK    5  A    between atoms: C7_12  and  O2_13 
REMARK       I    between atoms: N5_16  and  C10_17 
REMARK       I    between atoms: C10_17  and  N6_19 
REMARK    6  A    between atoms: N6_19  and  C11_20 
REMARK    7  A    between atoms: C11_20  and  C12_21 
REMARK    8  A    between atoms: C12_21  and  O4_22 
ROOT
ATOM      1  C1   11 d         -12.269 207.235 112.469  0.00  0.00     0.323 C 
ATOM      2  N1   11 d         -11.022 207.801 112.198  0.00  0.00    -0.313 N 
ATOM      3  C2   11 d         -10.490 208.451 113.426  0.00  0.00     0.235 C 
ATOM      4  C3   11 d         -11.560 208.139 114.524  0.00  0.00     0.235 C 
ATOM      5  N2   11 d         -12.664 207.476 113.786  0.00  0.00    -0.313 N 
ATOM      6  C4   11 d         -13.983 207.128 114.382  0.00  0.00     0.157 C 
ATOM      7  C15  11 d         -10.338 207.758 110.879  0.00  0.00     0.157 C 
ATOM      8  O5   11 d         -12.954 206.564 111.621  0.00  0.00    -0.247 OA
ENDROOT
BRANCH   3   9
ATOM      9  N5   11 d          -9.124 207.940 113.747  0.00  0.00    -0.318 N 
ATOM     10  C10  11 d          -8.071 208.825 114.082  0.00  0.00     0.318 C 
ATOM     11  O3   11 d          -8.279 210.090 114.086  0.00  0.00    -0.247 OA
ATOM     12  N6   11 d          -6.793 208.292 114.417  0.00  0.00    -0.333 N 
ATOM     13  H18  11 d          -6.700 207.222 114.382  0.00  0.00     0.165 HD
ATOM     14  H17  11 d          -8.943 206.883 113.737  0.00  0.00     0.166 HD
BRANCH  12  15
ATOM     15  C11  11 d          -5.591 209.110 114.820  0.00  0.00     0.048 C 
ATOM     16  C13  11 d          -5.085 209.912 113.602  0.00  0.00     0.040 C 
ATOM     17  C14  11 d          -4.475 208.200 115.376  0.00  0.00     0.040 C 
BRANCH  15  18
ATOM     18  C12  11 d          -6.035 210.099 115.933  0.00  0.00     0.194 C 
BRANCH  18  19
ATOM     19  O4   11 d          -6.221 211.452 115.450  0.00  0.00    -0.398 OA
ATOM     20  H21  11 d          -6.455 212.045 116.267  0.00  0.00     0.209 HD
ENDBRANCH  18  19
ENDBRANCH  15  18
ENDBRANCH  12  15
ENDBRANCH   3   9
BRANCH   4  21
ATOM     21  N3   11 d         -11.101 207.203 115.596  0.00  0.00    -0.318 N 
ATOM     22  C5   11 d         -10.339 207.649 116.708  0.00  0.00     0.318 C 
ATOM     23  O1   11 d         -10.036 208.887 116.820  0.00  0.00    -0.247 OA
ATOM     24  N4   11 d          -9.926 206.695 117.684  0.00  0.00    -0.333 N 
ATOM     25  H7   11 d         -10.221 205.678 117.501  0.00  0.00     0.165 HD
ATOM     26  H6   11 d         -11.352 206.162 115.531  0.00  0.00     0.166 HD
BRANCH  24  27
ATOM     27  C6   11 d          -9.139 206.996 118.938  0.00  0.00     0.048 C 
ATOM     28  C8   11 d          -9.621 206.018 120.023  0.00  0.00     0.040 C 
ATOM     29  C9   11 d          -9.303 208.457 119.420  0.00  0.00     0.040 C 
BRANCH  27  30
ATOM     30  C7   11 d          -7.638 206.749 118.623  0.00  0.00     0.194 C 
BRANCH  30  31
ATOM     31  O2   11 d          -7.233 207.270 117.334  0.00  0.00    -0.398 OA
ATOM     32  H10  11 d          -6.974 208.265 117.470  0.00  0.00     0.209 HD
ENDBRANCH  30  31
ENDBRANCH  27  30
ENDBRANCH  24  27
ENDBRANCH   4  21
TORSDOF 8
ENDMDL
MODEL 7
REMARK VINA RESULT:      -6.6      3.331      8.973
REMARK  8 active torsions:
REMARK  status: ('A' for Active; 'I' for Inactive)
REMARK    1  A    between atoms: C2_3  and  N5_16 
REMARK    2  A    between atoms: C3_4  and  N3_7 
REMARK       I    between atoms: N3_7  and  C5_8 
REMARK       I    between atoms: C5_8  and  N4_10 
REMARK    3  A    between atoms: N4_10  and  C6_11 
REMARK    4  A    between atoms: C6_11  and  C7_12 
REMARK    5  A    between atoms: C7_12  and  O2_13 
REMARK       I    between atoms: N5_16  and  C10_17 
REMARK       I    between atoms: C10_17  and  N6_19 
REMARK    6  A    between atoms: N6_19  and  C11_20 
REMARK    7  A    between atoms: C11_20  and  C12_21 
REMARK    8  A    between atoms: C12_21  and  O4_22 
ROOT
ATOM      1  C1   11 d          -7.330 208.841 112.636  0.00  0.00     0.323 C 
ATOM      2  N1   11 d          -6.575 209.362 113.689  0.00  0.00    -0.313 N 
ATOM      3  C2   11 d          -7.471 209.688 114.832  0.00  0.00     0.235 C 
ATOM      4  C3   11 d          -8.887 209.222 114.360  0.00  0.00     0.235 C 
ATOM      5  N2   11 d          -8.691 208.817 112.946  0.00  0.00    -0.313 N 
ATOM      6  C4   11 d          -9.793 208.443 112.018  0.00  0.00     0.157 C 
ATOM      7  C15  11 d          -5.102 209.558 113.663  0.00  0.00     0.157 C 
ATOM      8  O5   11 d          -6.833 208.421 111.533  0.00  0.00    -0.247 OA
ENDROOT
BRANCH   3   9
ATOM      9  N5   11 d          -6.998 209.023 116.082  0.00  0.00    -0.318 N 
ATOM     10  C10  11 d          -6.227 209.727 117.039  0.00  0.00     0.318 C 
ATOM     11  O3   11 d          -5.901 210.947 116.823  0.00  0.00    -0.247 OA
ATOM     12  N6   11 d          -5.828 209.064 118.236  0.00  0.00    -0.333 N 
ATOM     13  H18  11 d          -6.135 208.038 118.336  0.00  0.00     0.165 HD
ATOM     14  H17  11 d          -7.260 207.999 116.264  0.00  0.00     0.166 HD
BRANCH  12  15
ATOM     15  C11  11 d          -5.031 209.694 119.352  0.00  0.00     0.048 C 
ATOM     16  C13  11 d          -3.812 210.432 118.758  0.00  0.00     0.040 C 
ATOM     17  C14  11 d          -4.580 208.623 120.368  0.00  0.00     0.040 C 
BRANCH  15  18
ATOM     18  C12  11 d          -5.947 210.720 120.074  0.00  0.00     0.194 C 
BRANCH  18  19
ATOM     19  O4   11 d          -5.800 212.068 119.565  0.00  0.00    -0.398 OA
ATOM     20  H21  11 d          -5.100 212.038 118.802  0.00  0.00     0.209 HD
ENDBRANCH  18  19
ENDBRANCH  15  18
ENDBRANCH  12  15
ENDBRANCH   3   9
BRANCH   4  21
ATOM     21  N3   11 d          -9.437 208.045 115.101  0.00  0.00    -0.318 N 
ATOM     22  C5   11 d         -10.822 207.910 115.377  0.00  0.00     0.318 C 
ATOM     23  O1   11 d         -11.644 208.806 114.978  0.00  0.00    -0.247 OA
ATOM     24  N4   11 d         -11.270 206.766 116.100  0.00  0.00    -0.333 N 
ATOM     25  H7   11 d         -10.506 206.072 116.400  0.00  0.00     0.165 HD
ATOM     26  H6   11 d          -8.769 207.274 115.435  0.00  0.00     0.166 HD
BRANCH  24  27
ATOM     27  C6   11 d         -12.704 206.448 116.455  0.00  0.00     0.048 C 
ATOM     28  C8   11 d         -12.705 205.082 117.163  0.00  0.00     0.040 C 
ATOM     29  C9   11 d         -13.640 206.417 115.224  0.00  0.00     0.040 C 
BRANCH  27  30
ATOM     30  C7   11 d         -13.204 207.554 117.426  0.00  0.00     0.194 C 
BRANCH  30  31
ATOM     31  O2   11 d         -14.074 208.520 116.788  0.00  0.00    -0.398 OA
ATOM     32  H10  11 d         -14.462 208.073 115.937  0.00  0.00     0.209 HD
ENDBRANCH  30  31
ENDBRANCH  27  30
ENDBRANCH  24  27
ENDBRANCH   4  21
TORSDOF 8
ENDMDL
MODEL 8
REMARK VINA RESULT:      -6.4      2.522      7.633
REMARK  8 active torsions:
REMARK  status: ('A' for Active; 'I' for Inactive)
REMARK    1  A    between atoms: C2_3  and  N5_16 
REMARK    2  A    between atoms: C3_4  and  N3_7 
REMARK       I    between atoms: N3_7  and  C5_8 
REMARK       I    between atoms: C5_8  and  N4_10 
REMARK    3  A    between atoms: N4_10  and  C6_11 
REMARK    4  A    between atoms: C6_11  and  C7_12 
REMARK    5  A    between atoms: C7_12  and  O2_13 
REMARK       I    between atoms: N5_16  and  C10_17 
REMARK       I    between atoms: C10_17  and  N6_19 
REMARK    6  A    between atoms: N6_19  and  C11_20 
REMARK    7  A    between atoms: C11_20  and  C12_21 
REMARK    8  A    between atoms: C12_21  and  O4_22 
ROOT
ATOM      1  C1   11 d         -13.015 207.097 112.716  0.00  0.00     0.323 C 
ATOM      2  N1   11 d         -11.823 207.477 113.338  0.00  0.00    -0.313 N 
ATOM      3  C2   11 d         -12.102 207.898 114.737  0.00  0.00     0.235 C 
ATOM      4  C3   11 d         -13.635 207.651 114.918  0.00  0.00     0.235 C 
ATOM      5  N2   11 d         -14.109 207.261 113.568  0.00  0.00    -0.313 N 
ATOM      6  C4   11 d         -15.539 207.073 113.200  0.00  0.00     0.157 C 
ATOM      7  C15  11 d         -10.485 207.461 112.690  0.00  0.00     0.157 C 
ATOM      8  O5   11 d         -13.090 206.641 111.523  0.00  0.00    -0.247 OA
ENDROOT
BRANCH   3   9
ATOM      9  N5   11 d         -11.247 207.139 115.698  0.00  0.00    -0.318 N 
ATOM     10  C10  11 d         -10.338 207.806 116.554  0.00  0.00     0.318 C 
ATOM     11  O3   11 d         -10.220 209.081 116.490  0.00  0.00    -0.247 OA
ATOM     12  N6   11 d          -9.568 207.046 117.482  0.00  0.00    -0.333 N 
ATOM     13  H18  11 d          -9.721 205.982 117.466  0.00  0.00     0.165 HD
ATOM     14  H17  11 d         -11.335 206.071 115.750  0.00  0.00     0.166 HD
BRANCH  12  15
ATOM     15  C11  11 d          -8.585 207.622 118.470  0.00  0.00     0.048 C 
ATOM     16  C13  11 d          -9.302 208.655 119.365  0.00  0.00     0.040 C 
ATOM     17  C14  11 d          -7.393 208.272 117.735  0.00  0.00     0.040 C 
BRANCH  15  18
ATOM     18  C12  11 d          -8.057 206.459 119.355  0.00  0.00     0.194 C 
BRANCH  18  19
ATOM     19  O4   11 d          -9.118 205.678 119.958  0.00  0.00    -0.398 OA
ATOM     20  H21  11 d          -9.280 204.853 119.351  0.00  0.00     0.209 HD
ENDBRANCH  18  19
ENDBRANCH  15  18
ENDBRANCH  12  15
ENDBRANCH   3   9
BRANCH   4  21
ATOM     21  N3   11 d         -13.984 206.546 115.863  0.00  0.00    -0.318 N 
ATOM     22  C5   11 d         -13.913 206.709 117.271  0.00  0.00     0.318 C 
ATOM     23  O1   11 d         -13.553 207.833 117.767  0.00  0.00    -0.247 OA
ATOM     24  N4   11 d         -14.248 205.605 118.108  0.00  0.00    -0.333 N 
ATOM     25  H7   11 d         -14.531 204.700 117.601  0.00  0.00     0.165 HD
ATOM     26  H6   11 d         -14.300 205.598 115.472  0.00  0.00     0.166 HD
BRANCH  24  27
ATOM     27  C6   11 d         -14.255 205.609 119.619  0.00  0.00     0.048 C 
ATOM     28  C8   11 d         -14.891 204.284 120.074  0.00  0.00     0.040 C 
ATOM     29  C9   11 d         -15.026 206.809 120.218  0.00  0.00     0.040 C 
BRANCH  27  30
ATOM     30  C7   11 d         -12.778 205.686 120.096  0.00  0.00     0.194 C 
BRANCH  30  31
ATOM     31  O2   11 d         -11.823 205.468 119.031  0.00  0.00    -0.398 OA
ATOM     32  H10  11 d         -11.561 206.397 118.654  0.00  0.00     0.209 HD
ENDBRANCH  30  31
ENDBRANCH  27  30
ENDBRANCH  24  27
ENDBRANCH   4  21
TORSDOF 8
ENDMDL
MODEL 9
REMARK VINA RESULT:      -6.4      2.167      5.610
REMARK  8 active torsions:
REMARK  status: ('A' for Active; 'I' for Inactive)
REMARK    1  A    between atoms: C2_3  and  N5_16 
REMARK    2  A    between atoms: C3_4  and  N3_7 
REMARK       I    between atoms: N3_7  and  C5_8 
REMARK       I    between atoms: C5_8  and  N4_10 
REMARK    3  A    between atoms: N4_10  and  C6_11 
REMARK    4  A    between atoms: C6_11  and  C7_12 
REMARK    5  A    between atoms: C7_12  and  O2_13 
REMARK       I    between atoms: N5_16  and  C10_17 
REMARK       I    between atoms: C10_17  and  N6_19 
REMARK    6  A    between atoms: N6_19  and  C11_20 
REMARK    7  A    between atoms: C11_20  and  C12_21 
REMARK    8  A    between atoms: C12_21  and  O4_22 
ROOT
ATOM      1  C1   11 d         -13.924 205.586 116.162  0.00  0.00     0.323 C 
ATOM      2  N1   11 d         -13.546 206.162 114.947  0.00  0.00    -0.313 N 
ATOM      3  C2   11 d         -12.521 207.212 115.189  0.00  0.00     0.235 C 
ATOM      4  C3   11 d         -12.261 207.153 116.730  0.00  0.00     0.235 C 
ATOM      5  N2   11 d         -13.266 206.187 117.237  0.00  0.00    -0.313 N 
ATOM      6  C4   11 d         -13.515 205.912 118.679  0.00  0.00     0.157 C 
ATOM      7  C15  11 d         -14.093 205.777 113.619  0.00  0.00     0.157 C 
ATOM      8  O5   11 d         -14.755 204.619 116.273  0.00  0.00    -0.247 OA
ENDROOT
BRANCH   3   9
ATOM      9  N5   11 d         -11.305 206.967 114.358  0.00  0.00    -0.318 N 
ATOM     10  C10  11 d         -10.402 208.014 114.053  0.00  0.00     0.318 C 
ATOM     11  O3   11 d         -10.641 209.202 114.471  0.00  0.00    -0.247 OA
ATOM     12  N6   11 d          -9.235 207.727 113.288  0.00  0.00    -0.333 N 
ATOM     13  H18  11 d          -9.114 206.708 112.970  0.00  0.00     0.165 HD
ATOM     14  H17  11 d         -11.105 205.976 113.998  0.00  0.00     0.166 HD
BRANCH  12  15
ATOM     15  C11  11 d          -8.175 208.734 112.912  0.00  0.00     0.048 C 
ATOM     16  C13  11 d          -8.852 210.019 112.390  0.00  0.00     0.040 C 
ATOM     17  C14  11 d          -7.222 208.148 111.849  0.00  0.00     0.040 C 
BRANCH  15  18
ATOM     18  C12  11 d          -7.358 209.070 114.190  0.00  0.00     0.194 C 
BRANCH  18  19
ATOM     19  O4   11 d          -7.765 210.313 114.814  0.00  0.00    -0.398 OA
ATOM     20  H21  11 d          -7.981 210.107 115.806  0.00  0.00     0.209 HD
ENDBRANCH  18  19
ENDBRANCH  15  18
ENDBRANCH  12  15
ENDBRANCH   3   9
BRANCH   4  21
ATOM     21  N3   11 d         -10.907 206.651 117.117  0.00  0.00    -0.318 N 
ATOM     22  C5   11 d          -9.965 207.470 117.792  0.00  0.00     0.318 C 
ATOM     23  O1   11 d         -10.270 208.675 118.098  0.00  0.00    -0.247 OA
ATOM     24  N4   11 d          -8.689 206.925 118.117  0.00  0.00    -0.333 N 
ATOM     25  H7   11 d          -8.521 205.908 117.812  0.00  0.00     0.165 HD
ATOM     26  H6   11 d         -10.632 205.641 116.881  0.00  0.00     0.166 HD
BRANCH  24  27
ATOM     27  C6   11 d          -7.581 207.641 118.854  0.00  0.00     0.048 C 
ATOM     28  C8   11 d          -6.944 208.632 117.864  0.00  0.00     0.040 C 
ATOM     29  C9   11 d          -6.509 206.680 119.418  0.00  0.00     0.040 C 
BRANCH  27  30
ATOM     30  C7   11 d          -8.226 208.410 120.041  0.00  0.00     0.194 C 
BRANCH  30  31
ATOM     31  O2   11 d          -8.257 209.844 119.841  0.00  0.00    -0.398 OA
ATOM     32  H10  11 d          -7.421 210.240 120.309  0.00  0.00     0.209 HD
ENDBRANCH  30  31
ENDBRANCH  27  30
ENDBRANCH  24  27
ENDBRANCH   4  21
TORSDOF 8
ENDMDL
MODEL 10
REMARK VINA RESULT:      -6.3      2.678      3.597
REMARK  8 active torsions:
REMARK  status: ('A' for Active; 'I' for Inactive)
REMARK    1  A    between atoms: C2_3  and  N5_16 
REMARK    2  A    between atoms: C3_4  and  N3_7 
REMARK       I    between atoms: N3_7  and  C5_8 
REMARK       I    between atoms: C5_8  and  N4_10 
REMARK    3  A    between atoms: N4_10  and  C6_11 
REMARK    4  A    between atoms: C6_11  and  C7_12 
REMARK    5  A    between atoms: C7_12  and  O2_13 
REMARK       I    between atoms: N5_16  and  C10_17 
REMARK       I    between atoms: C10_17  and  N6_19 
REMARK    6  A    between atoms: N6_19  and  C11_20 
REMARK    7  A    between atoms: C11_20  and  C12_21 
REMARK    8  A    between atoms: C12_21  and  O4_22 
ROOT
ATOM      1  C1   11 d          -9.337 206.247 119.752  0.00  0.00     0.323 C 
ATOM      2  N1   11 d         -10.457 206.475 118.949  0.00  0.00    -0.313 N 
ATOM      3  C2   11 d         -10.141 207.517 117.936  0.00  0.00     0.235 C 
ATOM      4  C3   11 d          -8.633 207.850 118.178  0.00  0.00     0.235 C 
ATOM      5  N2   11 d          -8.276 207.083 119.397  0.00  0.00    -0.313 N 
ATOM      6  C4   11 d          -6.977 207.199 120.113  0.00  0.00     0.157 C 
ATOM      7  C15  11 d         -11.762 205.779 119.096  0.00  0.00     0.157 C 
ATOM      8  O5   11 d          -9.285 205.370 120.683  0.00  0.00    -0.247 OA
ENDROOT
BRANCH   3   9
ATOM      9  N5   11 d         -10.441 207.024 116.558  0.00  0.00    -0.318 N 
ATOM     10  C10  11 d         -11.713 207.221 115.970  0.00  0.00     0.318 C 
ATOM     11  O3   11 d         -12.638 207.808 116.635  0.00  0.00    -0.247 OA
ATOM     12  N6   11 d         -11.943 206.766 114.639  0.00  0.00    -0.333 N 
ATOM     13  H18  11 d         -11.118 206.277 114.154  0.00  0.00     0.165 HD
ATOM     14  H17  11 d          -9.672 206.524 116.001  0.00  0.00     0.166 HD
BRANCH  12  15
ATOM     15  C11  11 d         -13.235 206.932 113.878  0.00  0.00     0.048 C 
ATOM     16  C13  11 d         -13.000 206.599 112.389  0.00  0.00     0.040 C 
ATOM     17  C14  11 d         -13.780 208.368 114.037  0.00  0.00     0.040 C 
BRANCH  15  18
ATOM     18  C12  11 d         -14.270 205.934 114.467  0.00  0.00     0.194 C 
BRANCH  18  19
ATOM     19  O4   11 d         -15.122 206.529 115.476  0.00  0.00    -0.398 OA
ATOM     20  H21  11 d         -16.074 206.141 115.348  0.00  0.00     0.209 HD
ENDBRANCH  18  19
ENDBRANCH  15  18
ENDBRANCH  12  15
ENDBRANCH   3   9
BRANCH   4  21
ATOM     21  N3   11 d          -7.713 207.419 117.081  0.00  0.00    -0.318 N 
ATOM     22  C5   11 d          -6.623 208.221 116.654  0.00  0.00     0.318 C 
ATOM     23  O1   11 d          -6.396 209.346 117.222  0.00  0.00    -0.247 OA
ATOM     24  N4   11 d          -5.797 207.750 115.593  0.00  0.00    -0.333 N 
ATOM     25  H7   11 d          -6.069 206.799 115.173  0.00  0.00     0.165 HD
ATOM     26  H6   11 d          -7.875 206.475 116.597  0.00  0.00     0.166 HD
BRANCH  24  27
ATOM     27  C6   11 d          -4.584 208.457 115.033  0.00  0.00     0.048 C 
ATOM     28  C8   11 d          -3.976 207.536 113.961  0.00  0.00     0.040 C 
ATOM     29  C9   11 d          -3.529 208.795 116.113  0.00  0.00     0.040 C 
BRANCH  27  30
ATOM     30  C7   11 d          -5.068 209.784 114.387  0.00  0.00     0.194 C 
BRANCH  30  31
ATOM     31  O2   11 d          -5.633 209.602 113.066  0.00  0.00    -0.398 OA
ATOM     32  H10  11 d          -6.597 209.240 113.190  0.00  0.00     0.209 HD
ENDBRANCH  30  31
ENDBRANCH  27  30
ENDBRANCH  24  27
ENDBRANCH   4  21
TORSDOF 8
ENDMDL
