MODEL 1
REMARK VINA RESULT:     -10.4      0.000      0.000
REMARK  3 active torsions:
REMARK  status: ('A' for Active; 'I' for Inactive)
REMARK    1  A    between atoms: C12_14  and  N3_25 
REMARK    2  A    between atoms: C14_16  and  N2_17 
REMARK    3  A    between atoms: N2_17  and  C15_18 
ROOT
ATOM      1  C1   11 d         -11.420 207.622 112.213  0.00  0.00     0.196 A 
ATOM      2  C2   11 d         -11.005 208.050 113.593  0.00  0.00     0.057 A 
ATOM      3  C3   11 d         -11.807 207.536 114.596  0.00  0.00     0.051 A 
ATOM      4  C4   11 d         -12.890 206.727 114.476  0.00  0.00     0.126 A 
ATOM      5  C5   11 d         -13.349 206.296 113.223  0.00  0.00     0.015 A 
ATOM      6  C6   11 d         -12.635 206.727 112.061  0.00  0.00     0.028 A 
ATOM      7  C7   11 d         -13.082 206.305 110.793  0.00  0.00     0.016 A 
ATOM      8  C8   11 d         -14.209 205.477 110.675  0.00  0.00     0.001 A 
ATOM      9  C9   11 d         -14.903 205.059 111.821  0.00  0.00     0.001 A 
ATOM     10  C10  11 d         -14.477 205.465 113.093  0.00  0.00     0.015 A 
ATOM     11  O1   11 d         -13.375 206.461 115.668  0.00  0.00    -0.211 OA
ATOM     12  N1   11 d         -12.657 207.056 116.523  0.00  0.00    -0.125 NA
ATOM     13  C11  11 d         -11.654 207.751 115.925  0.00  0.00     0.125 A 
ATOM     14  C12  11 d         -10.611 208.563 116.406  0.00  0.00     0.062 A 
ATOM     15  C13  11 d          -9.754 209.132 115.417  0.00  0.00     0.062 A 
ATOM     16  C14  11 d          -9.928 208.880 114.016  0.00  0.00     0.050 A 
ATOM     17  O2   11 d         -10.772 207.993 111.200  0.00  0.00    -0.286 OA
ENDROOT
BRANCH  16  18
ATOM     18  N2   11 d          -9.078 209.477 113.092  0.00  0.00    -0.355 N 
ATOM     19  H6   11 d          -9.451 210.193 112.506  0.00  0.00     0.166 HD
BRANCH  18  20
ATOM     20  C15  11 d          -7.737 209.139 112.934  0.00  0.00     0.032 A 
ATOM     21  C16  11 d          -7.347 208.400 111.800  0.00  0.00     0.030 A 
ATOM     22  C17  11 d          -6.003 208.051 111.601  0.00  0.00     0.009 A 
ATOM     23  C18  11 d          -5.026 208.400 112.552  0.00  0.00    -0.062 A 
ATOM     24  C19  11 d          -5.408 209.154 113.678  0.00  0.00     0.009 A 
ATOM     25  C21  11 d          -3.573 208.124 112.283  0.00  0.00     0.048 C 
ATOM     26  C20  11 d          -6.752 209.503 113.877  0.00  0.00     0.030 A 
ENDBRANCH  18  20
ENDBRANCH  16  18
BRANCH  14  27
ATOM     27  N3   11 d         -10.463 208.775 117.775  0.00  0.00    -0.392 N 
ATOM     28  C22  11 d          -9.689 207.950 118.618  0.00  0.00     0.146 C 
ATOM     29  H14  11 d         -10.928 209.553 118.190  0.00  0.00     0.159 HD
ENDBRANCH  14  27
TORSDOF 3
ENDMDL
MODEL 2
REMARK VINA RESULT:     -10.1      1.600      5.196
REMARK  3 active torsions:
REMARK  status: ('A' for Active; 'I' for Inactive)
REMARK    1  A    between atoms: C12_14  and  N3_25 
REMARK    2  A    between atoms: C14_16  and  N2_17 
REMARK    3  A    between atoms: N2_17  and  C15_18 
ROOT
ATOM      1  C1   11 d         -13.677 207.558 114.357  0.00  0.00     0.196 A 
ATOM      2  C2   11 d         -12.241 207.891 114.064  0.00  0.00     0.057 A 
ATOM      3  C3   11 d         -11.863 207.617 112.762  0.00  0.00     0.051 A 
ATOM      4  C4   11 d         -12.614 207.090 111.761  0.00  0.00     0.126 A 
ATOM      5  C5   11 d         -13.957 206.739 111.958  0.00  0.00     0.015 A 
ATOM      6  C6   11 d         -14.527 206.959 113.251  0.00  0.00     0.028 A 
ATOM      7  C7   11 d         -15.875 206.610 113.468  0.00  0.00     0.016 A 
ATOM      8  C8   11 d         -16.643 206.057 112.431  0.00  0.00     0.001 A 
ATOM      9  C9   11 d         -16.076 205.846 111.166  0.00  0.00     0.001 A 
ATOM     10  C10  11 d         -14.737 206.184 110.926  0.00  0.00     0.015 A 
ATOM     11  O1   11 d         -11.885 206.986 110.673  0.00  0.00    -0.211 OA
ATOM     12  N1   11 d         -10.725 207.417 110.937  0.00  0.00    -0.125 NA
ATOM     13  C11  11 d         -10.635 207.829 112.229  0.00  0.00     0.125 A 
ATOM     14  C12  11 d          -9.598 208.371 113.008  0.00  0.00     0.062 A 
ATOM     15  C13  11 d          -9.924 208.667 114.366  0.00  0.00     0.062 A 
ATOM     16  C14  11 d         -11.234 208.445 114.905  0.00  0.00     0.050 A 
ATOM     17  O2   11 d         -14.172 207.773 115.493  0.00  0.00    -0.286 OA
ENDROOT
BRANCH  16  18
ATOM     18  N2   11 d         -11.493 208.730 116.241  0.00  0.00    -0.355 N 
ATOM     19  H6   11 d         -12.013 209.554 116.452  0.00  0.00     0.166 HD
BRANCH  18  20
ATOM     20  C15  11 d         -11.074 207.934 117.303  0.00  0.00     0.032 A 
ATOM     21  C16  11 d          -9.912 208.297 118.012  0.00  0.00     0.030 A 
ATOM     22  C17  11 d          -9.465 207.525 119.096  0.00  0.00     0.009 A 
ATOM     23  C18  11 d         -10.149 206.353 119.468  0.00  0.00    -0.062 A 
ATOM     24  C19  11 d         -11.321 205.997 118.774  0.00  0.00     0.009 A 
ATOM     25  C21  11 d          -9.735 205.591 120.696  0.00  0.00     0.048 C 
ATOM     26  C20  11 d         -11.768 206.767 117.690  0.00  0.00     0.030 A 
ENDBRANCH  18  20
ENDBRANCH  16  18
BRANCH  14  27
ATOM     27  N3   11 d          -8.341 208.587 112.448  0.00  0.00    -0.392 N 
ATOM     28  C22  11 d          -7.250 209.135 113.156  0.00  0.00     0.146 C 
ATOM     29  H14  11 d          -8.196 208.344 111.492  0.00  0.00     0.159 HD
ENDBRANCH  14  27
TORSDOF 3
ENDMDL
MODEL 3
REMARK VINA RESULT:     -10.0      2.783      6.399
REMARK  3 active torsions:
REMARK  status: ('A' for Active; 'I' for Inactive)
REMARK    1  A    between atoms: C12_14  and  N3_25 
REMARK    2  A    between atoms: C14_16  and  N2_17 
REMARK    3  A    between atoms: N2_17  and  C15_18 
ROOT
ATOM      1  C1   11 d         -14.506 207.572 114.044  0.00  0.00     0.196 A 
ATOM      2  C2   11 d         -13.121 207.810 114.577  0.00  0.00     0.057 A 
ATOM      3  C3   11 d         -12.133 207.715 113.615  0.00  0.00     0.051 A 
ATOM      4  C4   11 d         -12.269 207.431 112.294  0.00  0.00     0.126 A 
ATOM      5  C5   11 d         -13.524 207.181 111.723  0.00  0.00     0.015 A 
ATOM      6  C6   11 d         -14.674 207.243 112.572  0.00  0.00     0.028 A 
ATOM      7  C7   11 d         -15.945 206.994 112.015  0.00  0.00     0.016 A 
ATOM      8  C8   11 d         -16.077 206.691 110.651  0.00  0.00     0.001 A 
ATOM      9  C9   11 d         -14.944 206.634 109.826  0.00  0.00     0.001 A 
ATOM     10  C10  11 d         -13.669 206.878 110.356  0.00  0.00     0.015 A 
ATOM     11  O1   11 d         -11.087 207.435 111.720  0.00  0.00    -0.211 OA
ATOM     12  N1   11 d         -10.223 207.705 112.604  0.00  0.00    -0.125 NA
ATOM     13  C11  11 d         -10.804 207.893 113.818  0.00  0.00     0.125 A 
ATOM     14  C12  11 d         -10.309 208.201 115.097  0.00  0.00     0.062 A 
ATOM     15  C13  11 d         -11.281 208.304 116.138  0.00  0.00     0.062 A 
ATOM     16  C14  11 d         -12.683 208.123 115.896  0.00  0.00     0.050 A 
ATOM     17  O2   11 d         -15.510 207.647 114.797  0.00  0.00    -0.286 OA
ENDROOT
BRANCH  16  18
ATOM     18  N2   11 d         -13.587 208.212 116.949  0.00  0.00    -0.355 N 
ATOM     19  H6   11 d         -14.044 209.084 117.102  0.00  0.00     0.166 HD
BRANCH  18  20
ATOM     20  C15  11 d         -13.896 207.156 117.802  0.00  0.00     0.032 A 
ATOM     21  C16  11 d         -14.204 207.433 119.148  0.00  0.00     0.030 A 
ATOM     22  C17  11 d         -14.532 206.397 120.036  0.00  0.00     0.009 A 
ATOM     23  C18  11 d         -14.518 205.057 119.604  0.00  0.00    -0.062 A 
ATOM     24  C19  11 d         -14.228 204.777 118.255  0.00  0.00     0.009 A 
ATOM     25  C21  11 d         -14.977 203.959 120.524  0.00  0.00     0.048 C 
ATOM     26  C20  11 d         -13.900 205.813 117.368  0.00  0.00     0.030 A 
ENDBRANCH  18  20
ENDBRANCH  16  18
BRANCH  14  27
ATOM     27  N3   11 d          -8.942 208.384 115.294  0.00  0.00    -0.392 N 
ATOM     28  C22  11 d          -8.218 209.489 114.798  0.00  0.00     0.146 C 
ATOM     29  H14  11 d          -8.439 207.697 115.813  0.00  0.00     0.159 HD
ENDBRANCH  14  27
TORSDOF 3
ENDMDL
MODEL 4
REMARK VINA RESULT:      -9.7      2.775      7.390
REMARK  3 active torsions:
REMARK  status: ('A' for Active; 'I' for Inactive)
REMARK    1  A    between atoms: C12_14  and  N3_25 
REMARK    2  A    between atoms: C14_16  and  N2_17 
REMARK    3  A    between atoms: N2_17  and  C15_18 
ROOT
ATOM      1  C1   11 d         -10.658 208.604 115.053  0.00  0.00     0.196 A 
ATOM      2  C2   11 d         -11.899 208.050 114.410  0.00  0.00     0.057 A 
ATOM      3  C3   11 d         -11.734 207.729 113.075  0.00  0.00     0.051 A 
ATOM      4  C4   11 d         -10.622 207.864 112.308  0.00  0.00     0.126 A 
ATOM      5  C5   11 d          -9.430 208.386 112.829  0.00  0.00     0.015 A 
ATOM      6  C6   11 d          -9.410 208.770 114.206  0.00  0.00     0.028 A 
ATOM      7  C7   11 d          -8.220 209.298 114.748  0.00  0.00     0.016 A 
ATOM      8  C8   11 d          -7.077 209.444 113.946  0.00  0.00     0.001 A 
ATOM      9  C9   11 d          -7.106 209.064 112.596  0.00  0.00     0.001 A 
ATOM     10  C10  11 d          -8.278 208.536 112.035  0.00  0.00     0.015 A 
ATOM     11  O1   11 d         -10.876 207.444 111.088  0.00  0.00    -0.211 OA
ATOM     12  N1   11 d         -12.080 207.056 111.051  0.00  0.00    -0.125 NA
ATOM     13  C11  11 d         -12.683 207.205 112.260  0.00  0.00     0.125 A 
ATOM     14  C12  11 d         -13.976 206.939 112.742  0.00  0.00     0.062 A 
ATOM     15  C13  11 d         -14.212 207.259 114.113  0.00  0.00     0.062 A 
ATOM     16  C14  11 d         -13.189 207.801 114.959  0.00  0.00     0.050 A 
ATOM     17  O2   11 d         -10.648 208.920 116.270  0.00  0.00    -0.286 OA
ENDROOT
BRANCH  16  18
ATOM     18  N2   11 d         -13.477 208.115 116.283  0.00  0.00    -0.355 N 
ATOM     19  H6   11 d         -13.487 209.077 116.544  0.00  0.00     0.166 HD
BRANCH  18  20
ATOM     20  C15  11 d         -13.753 207.170 117.267  0.00  0.00     0.032 A 
ATOM     21  C16  11 d         -13.881 207.593 118.604  0.00  0.00     0.030 A 
ATOM     22  C17  11 d         -14.171 206.671 119.622  0.00  0.00     0.009 A 
ATOM     23  C18  11 d         -14.299 205.301 119.328  0.00  0.00    -0.062 A 
ATOM     24  C19  11 d         -14.189 204.876 117.990  0.00  0.00     0.009 A 
ATOM     25  C21  11 d         -14.719 204.332 120.398  0.00  0.00     0.048 C 
ATOM     26  C20  11 d         -13.899 205.797 116.973  0.00  0.00     0.030 A 
ENDBRANCH  18  20
ENDBRANCH  16  18
BRANCH  14  27
ATOM     27  N3   11 d         -14.942 206.399 111.896  0.00  0.00    -0.392 N 
ATOM     28  C22  11 d         -15.029 205.027 111.579  0.00  0.00     0.146 C 
ATOM     29  H14  11 d         -15.613 207.012 111.486  0.00  0.00     0.159 HD
ENDBRANCH  14  27
TORSDOF 3
ENDMDL
MODEL 5
REMARK VINA RESULT:      -9.5      2.830      4.750
REMARK  3 active torsions:
REMARK  status: ('A' for Active; 'I' for Inactive)
REMARK    1  A    between atoms: C12_14  and  N3_25 
REMARK    2  A    between atoms: C14_16  and  N2_17 
REMARK    3  A    between atoms: N2_17  and  C15_18 
ROOT
ATOM      1  C1   11 d         -10.504 208.343 114.509  0.00  0.00     0.196 A 
ATOM      2  C2   11 d         -11.405 207.807 115.586  0.00  0.00     0.057 A 
ATOM      3  C3   11 d         -12.415 206.990 115.108  0.00  0.00     0.051 A 
ATOM      4  C4   11 d         -12.678 206.643 113.822  0.00  0.00     0.126 A 
ATOM      5  C5   11 d         -11.894 207.114 112.759  0.00  0.00     0.015 A 
ATOM      6  C6   11 d         -10.791 207.972 113.066  0.00  0.00     0.028 A 
ATOM      7  C7   11 d          -9.992 208.456 112.011  0.00  0.00     0.016 A 
ATOM      8  C8   11 d         -10.276 208.101 110.683  0.00  0.00     0.001 A 
ATOM      9  C9   11 d         -11.359 207.258 110.391  0.00  0.00     0.001 A 
ATOM     10  C10  11 d         -12.167 206.763 111.424  0.00  0.00     0.015 A 
ATOM     11  O1   11 d         -13.725 205.850 113.786  0.00  0.00    -0.211 OA
ATOM     12  N1   11 d         -14.129 205.683 114.974  0.00  0.00    -0.125 NA
ATOM     13  C11  11 d         -13.357 206.369 115.857  0.00  0.00     0.125 A 
ATOM     14  C12  11 d         -13.378 206.520 117.255  0.00  0.00     0.062 A 
ATOM     15  C13  11 d         -12.366 207.361 117.809  0.00  0.00     0.062 A 
ATOM     16  C14  11 d         -11.371 207.998 116.997  0.00  0.00     0.050 A 
ATOM     17  O2   11 d          -9.527 209.082 114.794  0.00  0.00    -0.286 OA
ENDROOT
BRANCH  16  18
ATOM     18  N2   11 d         -10.420 208.825 117.584  0.00  0.00    -0.355 N 
ATOM     19  H6   11 d         -10.512 209.809 117.458  0.00  0.00     0.166 HD
BRANCH  18  20
ATOM     20  C15  11 d          -9.346 208.363 118.341  0.00  0.00     0.032 A 
ATOM     21  C16  11 d          -9.199 208.817 119.666  0.00  0.00     0.030 A 
ATOM     22  C17  11 d          -8.136 208.366 120.463  0.00  0.00     0.009 A 
ATOM     23  C18  11 d          -7.176 207.480 119.938  0.00  0.00    -0.062 A 
ATOM     24  C19  11 d          -7.329 207.010 118.620  0.00  0.00     0.009 A 
ATOM     25  C21  11 d          -6.104 206.911 120.825  0.00  0.00     0.048 C 
ATOM     26  C20  11 d          -8.391 207.462 117.823  0.00  0.00     0.030 A 
ENDBRANCH  18  20
ENDBRANCH  16  18
BRANCH  14  27
ATOM     27  N3   11 d         -14.350 205.875 118.015  0.00  0.00    -0.392 N 
ATOM     28  C22  11 d         -14.150 205.443 119.343  0.00  0.00     0.146 C 
ATOM     29  H14  11 d         -15.242 205.703 117.603  0.00  0.00     0.159 HD
ENDBRANCH  14  27
TORSDOF 3
ENDMDL
MODEL 6
REMARK VINA RESULT:      -9.2      3.687      7.184
REMARK  3 active torsions:
REMARK  status: ('A' for Active; 'I' for Inactive)
REMARK    1  A    between atoms: C12_14  and  N3_25 
REMARK    2  A    between atoms: C14_16  and  N2_17 
REMARK    3  A    between atoms: N2_17  and  C15_18 
ROOT
ATOM      1  C1   11 d         -15.151 205.724 114.659  0.00  0.00     0.196 A 
ATOM      2  C2   11 d         -13.878 206.014 115.402  0.00  0.00     0.057 A 
ATOM      3  C3   11 d         -12.955 206.731 114.661  0.00  0.00     0.051 A 
ATOM      4  C4   11 d         -13.065 207.175 113.383  0.00  0.00     0.126 A 
ATOM      5  C5   11 d         -14.215 206.932 112.618  0.00  0.00     0.015 A 
ATOM      6  C6   11 d         -15.286 206.205 113.226  0.00  0.00     0.028 A 
ATOM      7  C7   11 d         -16.449 205.950 112.472  0.00  0.00     0.016 A 
ATOM      8  C8   11 d         -16.552 206.403 111.148  0.00  0.00     0.001 A 
ATOM      9  C9   11 d         -15.497 207.117 110.560  0.00  0.00     0.001 A 
ATOM     10  C10  11 d         -14.330 207.383 111.290  0.00  0.00     0.015 A 
ATOM     11  O1   11 d         -11.970 207.817 113.045  0.00  0.00    -0.211 OA
ATOM     12  N1   11 d         -11.184 207.799 114.036  0.00  0.00    -0.125 NA
ATOM     13  C11  11 d         -11.733 207.135 115.087  0.00  0.00     0.125 A 
ATOM     14  C12  11 d         -11.290 206.833 116.387  0.00  0.00     0.062 A 
ATOM     15  C13  11 d         -12.195 206.084 117.199  0.00  0.00     0.062 A 
ATOM     16  C14  11 d         -13.488 205.679 116.731  0.00  0.00     0.050 A 
ATOM     17  O2   11 d         -16.093 205.100 115.211  0.00  0.00    -0.286 OA
ENDROOT
BRANCH  16  18
ATOM     18  N2   11 d         -14.323 204.932 117.554  0.00  0.00    -0.355 N 
ATOM     19  H6   11 d         -14.797 204.151 117.157  0.00  0.00     0.166 HD
BRANCH  18  20
ATOM     20  C15  11 d         -14.537 205.207 118.902  0.00  0.00     0.032 A 
ATOM     21  C16  11 d         -14.814 204.141 119.781  0.00  0.00     0.030 A 
ATOM     22  C17  11 d         -15.024 204.378 121.148  0.00  0.00     0.009 A 
ATOM     23  C18  11 d         -15.002 205.690 121.658  0.00  0.00    -0.062 A 
ATOM     24  C19  11 d         -14.709 206.756 120.786  0.00  0.00     0.009 A 
ATOM     25  C21  11 d         -15.116 205.931 123.137  0.00  0.00     0.048 C 
ATOM     26  C20  11 d         -14.499 206.520 119.419  0.00  0.00     0.030 A 
ENDBRANCH  18  20
ENDBRANCH  16  18
BRANCH  14  27
ATOM     27  N3   11 d         -10.034 207.255 116.815  0.00  0.00    -0.392 N 
ATOM     28  C22  11 d          -9.824 208.097 117.927  0.00  0.00     0.146 C 
ATOM     29  H14  11 d          -9.230 206.948 116.309  0.00  0.00     0.159 HD
ENDBRANCH  14  27
TORSDOF 3
ENDMDL
MODEL 7
REMARK VINA RESULT:      -9.0      2.199      6.794
REMARK  3 active torsions:
REMARK  status: ('A' for Active; 'I' for Inactive)
REMARK    1  A    between atoms: C12_14  and  N3_25 
REMARK    2  A    between atoms: C14_16  and  N2_17 
REMARK    3  A    between atoms: N2_17  and  C15_18 
ROOT
ATOM      1  C1   11 d         -12.821 206.240 114.683  0.00  0.00     0.196 A 
ATOM      2  C2   11 d         -11.834 206.919 113.776  0.00  0.00     0.057 A 
ATOM      3  C3   11 d         -10.951 207.750 114.442  0.00  0.00     0.051 A 
ATOM      4  C4   11 d         -10.888 208.018 115.771  0.00  0.00     0.126 A 
ATOM      5  C5   11 d         -11.782 207.436 116.681  0.00  0.00     0.015 A 
ATOM      6  C6   11 d         -12.769 206.536 116.170  0.00  0.00     0.028 A 
ATOM      7  C7   11 d         -13.678 205.942 117.069  0.00  0.00     0.016 A 
ATOM      8  C8   11 d         -13.613 206.231 118.441  0.00  0.00     0.001 A 
ATOM      9  C9   11 d         -12.640 207.115 118.933  0.00  0.00     0.001 A 
ATOM     10  C10  11 d         -11.725 207.717 118.058  0.00  0.00     0.015 A 
ATOM     11  O1   11 d          -9.906 208.860 116.003  0.00  0.00    -0.211 OA
ATOM     12  N1   11 d          -9.354 209.132 114.898  0.00  0.00    -0.125 NA
ATOM     13  C11  11 d          -9.957 208.474 113.872  0.00  0.00     0.125 A 
ATOM     14  C12  11 d          -9.742 208.430 112.484  0.00  0.00     0.062 A 
ATOM     15  C13  11 d         -10.629 207.596 111.738  0.00  0.00     0.062 A 
ATOM     16  C14  11 d         -11.666 206.830 112.364  0.00  0.00     0.050 A 
ATOM     17  O2   11 d         -13.673 205.436 114.224  0.00  0.00    -0.286 OA
ENDROOT
BRANCH  16  18
ATOM     18  N2   11 d         -12.518 206.050 111.590  0.00  0.00    -0.355 N 
ATOM     19  H6   11 d         -12.118 205.310 111.054  0.00  0.00     0.166 HD
BRANCH  18  20
ATOM     20  C15  11 d         -13.896 206.235 111.518  0.00  0.00     0.032 A 
ATOM     21  C16  11 d         -14.743 205.118 111.653  0.00  0.00     0.030 A 
ATOM     22  C17  11 d         -16.137 205.267 111.597  0.00  0.00     0.009 A 
ATOM     23  C18  11 d         -16.712 206.531 111.366  0.00  0.00    -0.062 A 
ATOM     24  C19  11 d         -15.869 207.653 111.249  0.00  0.00     0.009 A 
ATOM     25  C21  11 d         -18.204 206.707 111.418  0.00  0.00     0.048 C 
ATOM     26  C20  11 d         -14.475 207.504 111.304  0.00  0.00     0.030 A 
ENDBRANCH  18  20
ENDBRANCH  16  18
BRANCH  14  27
ATOM     27  N3   11 d          -8.715 209.177 111.910  0.00  0.00    -0.392 N 
ATOM     28  C22  11 d          -7.357 208.794 111.935  0.00  0.00     0.146 C 
ATOM     29  H14  11 d          -8.946 210.033 111.454  0.00  0.00     0.159 HD
ENDBRANCH  14  27
TORSDOF 3
ENDMDL
MODEL 8
REMARK VINA RESULT:      -9.0      2.300      6.659
REMARK  3 active torsions:
REMARK  status: ('A' for Active; 'I' for Inactive)
REMARK    1  A    between atoms: C12_14  and  N3_25 
REMARK    2  A    between atoms: C14_16  and  N2_17 
REMARK    3  A    between atoms: N2_17  and  C15_18 
ROOT
ATOM      1  C1   11 d          -8.825 209.256 114.919  0.00  0.00     0.196 A 
ATOM      2  C2   11 d          -9.754 208.528 115.849  0.00  0.00     0.057 A 
ATOM      3  C3   11 d          -9.124 208.010 116.967  0.00  0.00     0.051 A 
ATOM      4  C4   11 d          -7.809 208.075 117.297  0.00  0.00     0.126 A 
ATOM      5  C5   11 d          -6.877 208.723 116.475  0.00  0.00     0.015 A 
ATOM      6  C6   11 d          -7.350 209.329 115.269  0.00  0.00     0.028 A 
ATOM      7  C7   11 d          -6.428 209.984 114.429  0.00  0.00     0.016 A 
ATOM      8  C8   11 d          -5.068 210.039 114.773  0.00  0.00     0.001 A 
ATOM      9  C9   11 d          -4.612 209.443 115.958  0.00  0.00     0.001 A 
ATOM     10  C10  11 d          -5.511 208.786 116.810  0.00  0.00     0.015 A 
ATOM     11  O1   11 d          -7.612 207.458 118.441  0.00  0.00    -0.211 OA
ATOM     12  N1   11 d          -8.726 207.013 118.842  0.00  0.00    -0.125 NA
ATOM     13  C11  11 d          -9.722 207.319 117.969  0.00  0.00     0.125 A 
ATOM     14  C12  11 d         -11.104 207.064 117.939  0.00  0.00     0.062 A 
ATOM     15  C13  11 d         -11.810 207.565 116.804  0.00  0.00     0.062 A 
ATOM     16  C14  11 d         -11.158 208.304 115.762  0.00  0.00     0.050 A 
ATOM     17  O2   11 d          -9.257 209.801 113.871  0.00  0.00    -0.286 OA
ENDROOT
BRANCH  16  18
ATOM     18  N2   11 d         -11.887 208.752 114.667  0.00  0.00    -0.355 N 
ATOM     19  H6   11 d         -11.952 209.735 114.517  0.00  0.00     0.166 HD
BRANCH  18  20
ATOM     20  C15  11 d         -12.532 207.912 113.763  0.00  0.00     0.032 A 
ATOM     21  C16  11 d         -11.763 207.209 112.815  0.00  0.00     0.030 A 
ATOM     22  C17  11 d         -12.376 206.344 111.895  0.00  0.00     0.009 A 
ATOM     23  C18  11 d         -13.776 206.195 111.879  0.00  0.00    -0.062 A 
ATOM     24  C19  11 d         -14.547 206.882 112.837  0.00  0.00     0.009 A 
ATOM     25  C21  11 d         -14.421 205.187 110.970  0.00  0.00     0.048 C 
ATOM     26  C20  11 d         -13.934 207.747 113.756  0.00  0.00     0.030 A 
ENDBRANCH  18  20
ENDBRANCH  16  18
BRANCH  14  27
ATOM     27  N3   11 d         -11.708 206.355 118.975  0.00  0.00    -0.392 N 
ATOM     28  C22  11 d         -13.051 205.926 118.954  0.00  0.00     0.146 C 
ATOM     29  H14  11 d         -11.165 206.137 119.783  0.00  0.00     0.159 HD
ENDBRANCH  14  27
TORSDOF 3
ENDMDL
MODEL 9
REMARK VINA RESULT:      -8.9      2.171      4.286
REMARK  3 active torsions:
REMARK  status: ('A' for Active; 'I' for Inactive)
REMARK    1  A    between atoms: C12_14  and  N3_25 
REMARK    2  A    between atoms: C14_16  and  N2_17 
REMARK    3  A    between atoms: N2_17  and  C15_18 
ROOT
ATOM      1  C1   11 d         -11.078 207.580 116.175  0.00  0.00     0.196 A 
ATOM      2  C2   11 d         -11.180 207.550 114.676  0.00  0.00     0.057 A 
ATOM      3  C3   11 d         -12.227 206.776 114.207  0.00  0.00     0.051 A 
ATOM      4  C4   11 d         -13.130 206.060 114.924  0.00  0.00     0.126 A 
ATOM      5  C5   11 d         -13.092 206.024 116.325  0.00  0.00     0.015 A 
ATOM      6  C6   11 d         -12.074 206.776 116.990  0.00  0.00     0.028 A 
ATOM      7  C7   11 d         -12.020 206.751 118.399  0.00  0.00     0.016 A 
ATOM      8  C8   11 d         -12.951 206.000 119.133  0.00  0.00     0.001 A 
ATOM      9  C9   11 d         -13.947 205.266 118.472  0.00  0.00     0.001 A 
ATOM     10  C10  11 d         -14.021 205.275 117.072  0.00  0.00     0.015 A 
ATOM     11  O1   11 d         -13.965 205.461 114.106  0.00  0.00    -0.211 OA
ATOM     12  N1   11 d         -13.636 205.762 112.921  0.00  0.00    -0.125 NA
ATOM     13  C11  11 d         -12.553 206.584 112.906  0.00  0.00     0.125 A 
ATOM     14  C12  11 d         -11.806 207.190 111.881  0.00  0.00     0.062 A 
ATOM     15  C13  11 d         -10.704 207.995 112.301  0.00  0.00     0.062 A 
ATOM     16  C14  11 d         -10.386 208.194 113.685  0.00  0.00     0.050 A 
ATOM     17  O2   11 d         -10.189 208.261 116.748  0.00  0.00    -0.286 OA
ENDROOT
BRANCH  16  18
ATOM     18  N2   11 d          -9.288 208.971 114.040  0.00  0.00    -0.355 N 
ATOM     19  H6   11 d          -9.441 209.750 114.643  0.00  0.00     0.166 HD
BRANCH  18  20
ATOM     20  C15  11 d          -7.987 208.726 113.609  0.00  0.00     0.032 A 
ATOM     21  C16  11 d          -7.735 208.619 112.227  0.00  0.00     0.030 A 
ATOM     22  C17  11 d          -6.435 208.384 111.753  0.00  0.00     0.009 A 
ATOM     23  C18  11 d          -5.367 208.213 112.654  0.00  0.00    -0.062 A 
ATOM     24  C19  11 d          -5.612 208.337 114.035  0.00  0.00     0.009 A 
ATOM     25  C21  11 d          -3.959 208.074 112.144  0.00  0.00     0.048 C 
ATOM     26  C20  11 d          -6.912 208.571 114.509  0.00  0.00     0.030 A 
ENDBRANCH  18  20
ENDBRANCH  16  18
BRANCH  14  27
ATOM     27  N3   11 d         -12.152 206.986 110.547  0.00  0.00    -0.392 N 
ATOM     28  C22  11 d         -11.470 207.574 109.461  0.00  0.00     0.146 C 
ATOM     29  H14  11 d         -12.927 206.393 110.341  0.00  0.00     0.159 HD
ENDBRANCH  14  27
TORSDOF 3
ENDMDL
MODEL 10
REMARK VINA RESULT:      -8.8      3.067      6.778
REMARK  3 active torsions:
REMARK  status: ('A' for Active; 'I' for Inactive)
REMARK    1  A    between atoms: C12_14  and  N3_25 
REMARK    2  A    between atoms: C14_16  and  N2_17 
REMARK    3  A    between atoms: N2_17  and  C15_18 
ROOT
ATOM      1  C1   11 d          -9.969 208.342 116.438  0.00  0.00     0.196 A 
ATOM      2  C2   11 d         -11.280 207.834 116.968  0.00  0.00     0.057 A 
ATOM      3  C3   11 d         -11.165 207.140 118.158  0.00  0.00     0.051 A 
ATOM      4  C4   11 d         -10.040 206.867 118.867  0.00  0.00     0.126 A 
ATOM      5  C5   11 d          -8.777 207.292 118.433  0.00  0.00     0.015 A 
ATOM      6  C6   11 d          -8.701 208.037 117.214  0.00  0.00     0.028 A 
ATOM      7  C7   11 d          -7.439 208.472 116.760  0.00  0.00     0.016 A 
ATOM      8  C8   11 d          -6.279 208.178 117.494  0.00  0.00     0.001 A 
ATOM      9  C9   11 d          -6.363 207.448 118.689  0.00  0.00     0.001 A 
ATOM     10  C10  11 d          -7.607 207.005 119.160  0.00  0.00     0.015 A 
ATOM     11  O1   11 d         -10.354 206.182 119.944  0.00  0.00    -0.211 OA
ATOM     12  N1   11 d         -11.608 206.013 119.948  0.00  0.00    -0.125 NA
ATOM     13  C11  11 d         -12.185 206.585 118.858  0.00  0.00     0.125 A 
ATOM     14  C12  11 d         -13.508 206.679 118.394  0.00  0.00     0.062 A 
ATOM     15  C13  11 d         -13.692 207.377 117.162  0.00  0.00     0.062 A 
ATOM     16  C14  11 d         -12.599 207.967 116.446  0.00  0.00     0.050 A 
ATOM     17  O2   11 d          -9.917 209.012 115.374  0.00  0.00    -0.286 OA
ENDROOT
BRANCH  16  18
ATOM     18  N2   11 d         -12.829 208.618 115.239  0.00  0.00    -0.355 N 
ATOM     19  H6   11 d         -12.735 209.610 115.216  0.00  0.00     0.166 HD
BRANCH  18  20
ATOM     20  C15  11 d         -13.180 207.969 114.058  0.00  0.00     0.032 A 
ATOM     21  C16  11 d         -14.542 207.874 113.710  0.00  0.00     0.030 A 
ATOM     22  C17  11 d         -14.934 207.238 112.522  0.00  0.00     0.009 A 
ATOM     23  C18  11 d         -13.974 206.649 111.677  0.00  0.00    -0.062 A 
ATOM     24  C19  11 d         -12.611 206.757 112.013  0.00  0.00     0.009 A 
ATOM     25  C21  11 d         -14.385 206.068 110.353  0.00  0.00     0.048 C 
ATOM     26  C20  11 d         -12.219 207.392 113.200  0.00  0.00     0.030 A 
ENDBRANCH  18  20
ENDBRANCH  16  18
BRANCH  14  27
ATOM     27  N3   11 d         -14.549 206.107 119.122  0.00  0.00    -0.392 N 
ATOM     28  C22  11 d         -15.060 206.650 120.319  0.00  0.00     0.146 C 
ATOM     29  H14  11 d         -14.960 205.264 118.784  0.00  0.00     0.159 HD
ENDBRANCH  14  27
TORSDOF 3
ENDMDL
