MODEL 1
REMARK VINA RESULT:      -7.6      0.000      0.000
REMARK  1 active torsions:
REMARK  status: ('A' for Active; 'I' for Inactive)
REMARK    1  A    between atoms: C8_8  and  O1_9 
ROOT
ATOM      1  C1   11 d         -14.959 206.320 113.523  0.00  0.00     0.270 C 
ATOM      2  C2   11 d         -13.625 206.953 113.527  0.00  0.00     0.108 A 
ATOM      3  C3   11 d         -12.894 207.050 112.347  0.00  0.00    -0.012 A 
ATOM      4  C4   11 d         -11.663 207.572 112.704  0.00  0.00     0.002 A 
ATOM      5  C5   11 d         -11.700 207.836 114.064  0.00  0.00     0.043 A 
ATOM      6  C6   11 d         -10.597 208.380 114.731  0.00  0.00     0.033 A 
ATOM      7  C7   11 d          -9.440 208.664 113.977  0.00  0.00     0.039 A 
ATOM      8  C8   11 d          -9.409 208.421 112.582  0.00  0.00     0.069 A 
ATOM      9  C10  11 d         -10.520 207.836 111.939  0.00  0.00     0.051 A 
ATOM     10  N1   11 d         -12.898 207.460 114.553  0.00  0.00    -0.351 N 
ATOM     11  C11  11 d         -13.346 206.458 111.036  0.00  0.00     0.062 C 
ATOM     12  C12  11 d         -14.432 205.381 111.250  0.00  0.00     0.130 C 
ATOM     13  N2   11 d         -15.442 205.811 112.277  0.00  0.00    -0.351 N 
ATOM     14  C13  11 d         -16.901 205.702 111.993  0.00  0.00     0.153 C 
ATOM     15  O2   11 d         -15.643 206.204 114.602  0.00  0.00    -0.266 OA
ATOM     16  H7   11 d         -13.208 207.522 115.555  0.00  0.00     0.166 HD
ENDROOT
BRANCH   8  17
ATOM     17  O1   11 d          -8.210 208.644 111.855  0.00  0.00    -0.356 OA
ATOM     18  C9   11 d          -7.089 208.680 112.774  0.00  0.00     0.210 C 
ENDBRANCH   8  17
TORSDOF 1
ENDMDL
MODEL 2
REMARK VINA RESULT:      -7.5      2.208      5.768
REMARK  1 active torsions:
REMARK  status: ('A' for Active; 'I' for Inactive)
REMARK    1  A    between atoms: C8_8  and  O1_9 
ROOT
ATOM      1  C1   11 d          -9.317 208.738 114.652  0.00  0.00     0.270 C 
ATOM      2  C2   11 d         -10.448 207.966 114.101  0.00  0.00     0.108 A 
ATOM      3  C3   11 d         -10.620 207.863 112.724  0.00  0.00    -0.012 A 
ATOM      4  C4   11 d         -11.815 207.190 112.538  0.00  0.00     0.002 A 
ATOM      5  C5   11 d         -12.301 206.848 113.791  0.00  0.00     0.043 A 
ATOM      6  C6   11 d         -13.502 206.149 113.940  0.00  0.00     0.033 A 
ATOM      7  C7   11 d         -14.209 205.789 112.775  0.00  0.00     0.039 A 
ATOM      8  C8   11 d         -13.702 206.112 111.493  0.00  0.00     0.069 A 
ATOM      9  C10  11 d         -12.508 206.852 111.369  0.00  0.00     0.051 A 
ATOM     10  N1   11 d         -11.460 207.322 114.732  0.00  0.00    -0.351 N 
ATOM     11  C11  11 d          -9.753 208.580 111.720  0.00  0.00     0.062 C 
ATOM     12  C12  11 d          -8.988 209.752 112.373  0.00  0.00     0.130 C 
ATOM     13  N2   11 d          -8.437 209.372 113.719  0.00  0.00    -0.351 N 
ATOM     14  C13  11 d          -7.014 209.655 114.059  0.00  0.00     0.153 C 
ATOM     15  O2   11 d          -9.149 208.861 115.917  0.00  0.00    -0.266 OA
ATOM     16  H7   11 d         -11.578 207.232 115.773  0.00  0.00     0.166 HD
ENDROOT
BRANCH   8  17
ATOM     17  O1   11 d         -14.465 205.805 110.336  0.00  0.00    -0.356 OA
ATOM     18  C9   11 d         -15.357 206.910 110.040  0.00  0.00     0.210 C 
ENDBRANCH   8  17
TORSDOF 1
ENDMDL
MODEL 3
REMARK VINA RESULT:      -7.5      1.675      6.237
REMARK  1 active torsions:
REMARK  status: ('A' for Active; 'I' for Inactive)
REMARK    1  A    between atoms: C8_8  and  O1_9 
ROOT
ATOM      1  C1   11 d          -9.318 208.289 113.079  0.00  0.00     0.270 C 
ATOM      2  C2   11 d         -10.693 207.884 112.724  0.00  0.00     0.108 A 
ATOM      3  C3   11 d         -11.728 208.047 113.639  0.00  0.00    -0.012 A 
ATOM      4  C4   11 d         -12.844 207.470 113.058  0.00  0.00     0.002 A 
ATOM      5  C5   11 d         -12.479 207.034 111.795  0.00  0.00     0.043 A 
ATOM      6  C6   11 d         -13.397 206.405 110.947  0.00  0.00     0.033 A 
ATOM      7  C7   11 d         -14.717 206.232 111.411  0.00  0.00     0.039 A 
ATOM      8  C8   11 d         -15.100 206.702 112.691  0.00  0.00     0.069 A 
ATOM      9  C10  11 d         -14.147 207.298 113.542  0.00  0.00     0.051 A 
ATOM     10  N1   11 d         -11.171 207.293 111.601  0.00  0.00    -0.351 N 
ATOM     11  C11  11 d         -11.524 208.546 115.047  0.00  0.00     0.062 C 
ATOM     12  C12  11 d         -10.049 208.415 115.483  0.00  0.00     0.130 C 
ATOM     13  N2   11 d          -9.109 208.831 114.386  0.00  0.00    -0.351 N 
ATOM     14  C13  11 d          -7.994 209.780 114.666  0.00  0.00     0.153 C 
ATOM     15  O2   11 d          -8.345 208.132 112.258  0.00  0.00    -0.266 OA
ATOM     16  H7   11 d         -10.610 207.058 110.743  0.00  0.00     0.166 HD
ENDROOT
BRANCH   8  17
ATOM     17  O1   11 d         -16.415 206.453 113.168  0.00  0.00    -0.356 OA
ATOM     18  C9   11 d         -17.193 205.815 112.124  0.00  0.00     0.210 C 
ENDBRANCH   8  17
TORSDOF 1
ENDMDL
MODEL 4
REMARK VINA RESULT:      -7.4      1.802      2.919
REMARK  1 active torsions:
REMARK  status: ('A' for Active; 'I' for Inactive)
REMARK    1  A    between atoms: C8_8  and  O1_9 
ROOT
ATOM      1  C1   11 d         -13.489 206.892 112.799  0.00  0.00     0.270 C 
ATOM      2  C2   11 d         -12.112 207.418 112.891  0.00  0.00     0.108 A 
ATOM      3  C3   11 d         -11.659 207.985 114.078  0.00  0.00    -0.012 A 
ATOM      4  C4   11 d         -10.396 208.481 113.805  0.00  0.00     0.002 A 
ATOM      5  C5   11 d         -10.092 208.150 112.494  0.00  0.00     0.043 A 
ATOM      6  C6   11 d          -8.871 208.511 111.915  0.00  0.00     0.033 A 
ATOM      7  C7   11 d          -7.945 209.218 112.709  0.00  0.00     0.039 A 
ATOM      8  C8   11 d          -8.241 209.534 114.057  0.00  0.00     0.069 A 
ATOM      9  C10  11 d          -9.495 209.193 114.606  0.00  0.00     0.051 A 
ATOM     10  N1   11 d         -11.141 207.502 111.949  0.00  0.00    -0.351 N 
ATOM     11  C11  11 d         -12.530 208.185 115.292  0.00  0.00     0.062 C 
ATOM     12  C12  11 d         -14.029 208.122 114.926  0.00  0.00     0.130 C 
ATOM     13  N2   11 d         -14.316 207.006 113.960  0.00  0.00    -0.351 N 
ATOM     14  C13  11 d         -15.434 206.055 114.217  0.00  0.00     0.153 C 
ATOM     15  O2   11 d         -13.934 206.381 111.710  0.00  0.00    -0.266 OA
ATOM     16  H7   11 d         -11.208 207.145 110.963  0.00  0.00     0.166 HD
ENDROOT
BRANCH   8  17
ATOM     17  O1   11 d          -7.326 210.310 114.816  0.00  0.00    -0.356 OA
ATOM     18  C9   11 d          -5.974 210.036 114.368  0.00  0.00     0.210 C 
ENDBRANCH   8  17
TORSDOF 1
ENDMDL
MODEL 5
REMARK VINA RESULT:      -7.4      3.114      4.745
REMARK  1 active torsions:
REMARK  status: ('A' for Active; 'I' for Inactive)
REMARK    1  A    between atoms: C8_8  and  O1_9 
ROOT
ATOM      1  C1   11 d         -12.555 205.543 117.302  0.00  0.00     0.270 C 
ATOM      2  C2   11 d         -12.450 205.958 115.889  0.00  0.00     0.108 A 
ATOM      3  C3   11 d         -13.559 205.881 115.053  0.00  0.00    -0.012 A 
ATOM      4  C4   11 d         -13.109 206.220 113.789  0.00  0.00     0.002 A 
ATOM      5  C5   11 d         -11.768 206.554 113.900  0.00  0.00     0.043 A 
ATOM      6  C6   11 d         -11.022 206.950 112.785  0.00  0.00     0.033 A 
ATOM      7  C7   11 d         -11.675 207.010 111.537  0.00  0.00     0.039 A 
ATOM      8  C8   11 d         -13.051 206.697 111.426  0.00  0.00     0.069 A 
ATOM      9  C10  11 d         -13.773 206.263 112.557  0.00  0.00     0.051 A 
ATOM     10  N1   11 d         -11.379 206.394 115.181  0.00  0.00    -0.351 N 
ATOM     11  C11  11 d         -14.885 205.303 115.480  0.00  0.00     0.062 C 
ATOM     12  C12  11 d         -14.736 204.423 116.740  0.00  0.00     0.130 C 
ATOM     13  N2   11 d         -13.822 205.056 117.752  0.00  0.00    -0.351 N 
ATOM     14  C13  11 d         -14.236 205.164 119.180  0.00  0.00     0.153 C 
ATOM     15  O2   11 d         -11.541 205.590 118.086  0.00  0.00    -0.266 OA
ATOM     16  H7   11 d         -10.413 206.554 115.561  0.00  0.00     0.166 HD
ENDROOT
BRANCH   8  17
ATOM     17  O1   11 d         -13.672 206.693 110.149  0.00  0.00    -0.356 OA
ATOM     18  C9   11 d         -15.002 207.260 110.258  0.00  0.00     0.210 C 
ENDBRANCH   8  17
TORSDOF 1
ENDMDL
MODEL 6
REMARK VINA RESULT:      -7.1      3.206      4.243
REMARK  1 active torsions:
REMARK  status: ('A' for Active; 'I' for Inactive)
REMARK    1  A    between atoms: C8_8  and  O1_9 
ROOT
ATOM      1  C1   11 d         -11.478 207.697 117.624  0.00  0.00     0.270 C 
ATOM      2  C2   11 d         -10.983 208.106 116.294  0.00  0.00     0.108 A 
ATOM      3  C3   11 d         -11.529 207.546 115.143  0.00  0.00    -0.012 A 
ATOM      4  C4   11 d         -10.781 208.039 114.088  0.00  0.00     0.002 A 
ATOM      5  C5   11 d          -9.852 208.923 114.612  0.00  0.00     0.043 A 
ATOM      6  C6   11 d          -8.942 209.596 113.790  0.00  0.00     0.033 A 
ATOM      7  C7   11 d          -8.999 209.357 112.402  0.00  0.00     0.039 A 
ATOM      8  C8   11 d          -9.965 208.475 111.860  0.00  0.00     0.069 A 
ATOM      9  C10  11 d         -10.847 207.778 112.713  0.00  0.00     0.051 A 
ATOM     10  N1   11 d          -9.986 208.959 115.953  0.00  0.00    -0.351 N 
ATOM     11  C11  11 d         -12.567 206.452 115.159  0.00  0.00     0.062 C 
ATOM     12  C12  11 d         -12.605 205.735 116.526  0.00  0.00     0.130 C 
ATOM     13  N2   11 d         -12.512 206.710 117.666  0.00  0.00    -0.351 N 
ATOM     14  C13  11 d         -13.474 206.638 118.802  0.00  0.00     0.153 C 
ATOM     15  O2   11 d         -10.977 208.187 118.698  0.00  0.00    -0.266 OA
ATOM     16  H7   11 d          -9.406 209.526 116.621  0.00  0.00     0.166 HD
ENDROOT
BRANCH   8  17
ATOM     17  O1   11 d          -9.959 208.192 110.469  0.00  0.00    -0.356 OA
ATOM     18  C9   11 d         -11.160 207.458 110.121  0.00  0.00     0.210 C 
ENDBRANCH   8  17
TORSDOF 1
ENDMDL
MODEL 7
REMARK VINA RESULT:      -7.0      2.588      5.444
REMARK  1 active torsions:
REMARK  status: ('A' for Active; 'I' for Inactive)
REMARK    1  A    between atoms: C8_8  and  O1_9 
ROOT
ATOM      1  C1   11 d         -11.088 207.116 116.681  0.00  0.00     0.270 C 
ATOM      2  C2   11 d         -11.808 206.765 115.441  0.00  0.00     0.108 A 
ATOM      3  C3   11 d         -11.395 207.289 114.220  0.00  0.00    -0.012 A 
ATOM      4  C4   11 d         -12.332 206.873 113.291  0.00  0.00     0.002 A 
ATOM      5  C5   11 d         -13.244 206.064 113.950  0.00  0.00     0.043 A 
ATOM      6  C6   11 d         -14.321 205.480 113.275  0.00  0.00     0.033 A 
ATOM      7  C7   11 d         -14.452 205.729 111.894  0.00  0.00     0.039 A 
ATOM      8  C8   11 d         -13.507 206.532 111.212  0.00  0.00     0.069 A 
ATOM      9  C10  11 d         -12.451 207.143 111.921  0.00  0.00     0.051 A 
ATOM     10  N1   11 d         -12.914 206.003 115.256  0.00  0.00    -0.351 N 
ATOM     11  C11  11 d         -10.277 208.291 114.079  0.00  0.00     0.062 C 
ATOM     12  C12  11 d          -9.974 208.988 115.424  0.00  0.00     0.130 C 
ATOM     13  N2   11 d          -9.978 208.011 116.567  0.00  0.00    -0.351 N 
ATOM     14  C13  11 d          -8.855 207.990 117.545  0.00  0.00     0.153 C 
ATOM     15  O2   11 d         -11.461 206.658 117.820  0.00  0.00    -0.266 OA
ATOM     16  H7   11 d         -13.434 205.479 116.004  0.00  0.00     0.166 HD
ENDROOT
BRANCH   8  17
ATOM     17  O1   11 d         -13.697 206.830 109.837  0.00  0.00    -0.356 OA
ATOM     18  C9   11 d         -15.057 207.288 109.628  0.00  0.00     0.210 C 
ENDBRANCH   8  17
TORSDOF 1
ENDMDL
MODEL 8
REMARK VINA RESULT:      -7.0      2.380      5.851
REMARK  1 active torsions:
REMARK  status: ('A' for Active; 'I' for Inactive)
REMARK    1  A    between atoms: C8_8  and  O1_9 
ROOT
ATOM      1  C1   11 d         -10.374 208.126 115.789  0.00  0.00     0.270 C 
ATOM      2  C2   11 d         -11.241 207.700 114.672  0.00  0.00     0.108 A 
ATOM      3  C3   11 d         -12.425 207.016 114.928  0.00  0.00    -0.012 A 
ATOM      4  C4   11 d         -12.934 206.660 113.691  0.00  0.00     0.002 A 
ATOM      5  C5   11 d         -12.091 207.186 112.725  0.00  0.00     0.043 A 
ATOM      6  C6   11 d         -12.340 207.002 111.361  0.00  0.00     0.033 A 
ATOM      7  C7   11 d         -13.484 206.268 110.990  0.00  0.00     0.039 A 
ATOM      8  C8   11 d         -14.363 205.752 111.973  0.00  0.00     0.069 A 
ATOM      9  C10  11 d         -14.070 205.918 113.343  0.00  0.00     0.051 A 
ATOM     10  N1   11 d         -11.067 207.819 113.333  0.00  0.00    -0.351 N 
ATOM     11  C11  11 d         -12.859 206.588 116.307  0.00  0.00     0.062 C 
ATOM     12  C12  11 d         -11.671 206.584 117.294  0.00  0.00     0.130 C 
ATOM     13  N2   11 d         -10.797 207.794 117.114  0.00  0.00    -0.351 N 
ATOM     14  C13  11 d         -10.390 208.612 118.291  0.00  0.00     0.153 C 
ATOM     15  O2   11 d          -9.270 208.743 115.576  0.00  0.00    -0.266 OA
ATOM     16  H7   11 d         -10.262 208.299 112.857  0.00  0.00     0.166 HD
ENDROOT
BRANCH   8  17
ATOM     17  O1   11 d         -15.470 204.954 111.580  0.00  0.00    -0.356 OA
ATOM     18  C9   11 d         -16.701 205.665 111.864  0.00  0.00     0.210 C 
ENDBRANCH   8  17
TORSDOF 1
ENDMDL
MODEL 9
REMARK VINA RESULT:      -7.0      2.079      5.797
REMARK  1 active torsions:
REMARK  status: ('A' for Active; 'I' for Inactive)
REMARK    1  A    between atoms: C8_8  and  O1_9 
ROOT
ATOM      1  C1   11 d          -9.228 208.898 113.908  0.00  0.00     0.270 C 
ATOM      2  C2   11 d         -10.519 208.336 114.352  0.00  0.00     0.108 A 
ATOM      3  C3   11 d         -11.313 207.621 113.461  0.00  0.00    -0.012 A 
ATOM      4  C4   11 d         -12.487 207.341 114.138  0.00  0.00     0.002 A 
ATOM      5  C5   11 d         -12.353 207.831 115.427  0.00  0.00     0.043 A 
ATOM      6  C6   11 d         -13.379 207.697 116.368  0.00  0.00     0.033 A 
ATOM      7  C7   11 d         -14.561 207.039 115.971  0.00  0.00     0.039 A 
ATOM      8  C8   11 d         -14.691 206.513 114.663  0.00  0.00     0.069 A 
ATOM      9  C10  11 d         -13.657 206.694 113.720  0.00  0.00     0.051 A 
ATOM     10  N1   11 d         -11.152 208.431 115.547  0.00  0.00    -0.351 N 
ATOM     11  C11  11 d         -10.978 207.445 112.001  0.00  0.00     0.062 C 
ATOM     12  C12  11 d          -9.946 208.494 111.531  0.00  0.00     0.130 C 
ATOM     13  N2   11 d          -8.851 208.686 112.544  0.00  0.00    -0.351 N 
ATOM     14  C13  11 d          -7.422 208.657 112.126  0.00  0.00     0.153 C 
ATOM     15  O2   11 d          -8.487 209.575 114.707  0.00  0.00    -0.266 OA
ATOM     16  H7   11 d         -10.779 208.910 116.405  0.00  0.00     0.166 HD
ENDROOT
BRANCH   8  17
ATOM     17  O1   11 d         -15.916 205.919 114.261  0.00  0.00    -0.356 OA
ATOM     18  C9   11 d         -16.165 206.226 112.866  0.00  0.00     0.210 C 
ENDBRANCH   8  17
TORSDOF 1
ENDMDL
MODEL 10
REMARK VINA RESULT:      -6.9      2.188      3.571
REMARK  1 active torsions:
REMARK  status: ('A' for Active; 'I' for Inactive)
REMARK    1  A    between atoms: C8_8  and  O1_9 
ROOT
ATOM      1  C1   11 d         -14.083 205.566 115.866  0.00  0.00     0.270 C 
ATOM      2  C2   11 d         -13.235 206.014 114.744  0.00  0.00     0.108 A 
ATOM      3  C3   11 d         -12.064 206.723 114.992  0.00  0.00    -0.012 A 
ATOM      4  C4   11 d         -11.573 207.095 113.753  0.00  0.00     0.002 A 
ATOM      5  C5   11 d         -12.413 206.554 112.792  0.00  0.00     0.043 A 
ATOM      6  C6   11 d         -12.179 206.749 111.427  0.00  0.00     0.033 A 
ATOM      7  C7   11 d         -11.053 207.508 111.048  0.00  0.00     0.039 A 
ATOM      8  C8   11 d         -10.178 208.039 112.027  0.00  0.00     0.069 A 
ATOM      9  C10  11 d         -10.456 207.862 113.398  0.00  0.00     0.051 A 
ATOM     10  N1   11 d         -13.417 205.896 113.405  0.00  0.00    -0.351 N 
ATOM     11  C11  11 d         -11.628 207.155 116.370  0.00  0.00     0.062 C 
ATOM     12  C12  11 d         -12.807 207.130 117.366  0.00  0.00     0.130 C 
ATOM     13  N2   11 d         -13.656 205.902 117.189  0.00  0.00    -0.351 N 
ATOM     14  C13  11 d         -14.036 205.071 118.366  0.00  0.00     0.153 C 
ATOM     15  O2   11 d         -15.175 204.926 115.660  0.00  0.00    -0.266 OA
ATOM     16  H7   11 d         -14.215 205.401 112.934  0.00  0.00     0.166 HD
ENDROOT
BRANCH   8  17
ATOM     17  O1   11 d          -9.092 208.863 111.628  0.00  0.00    -0.356 OA
ATOM     18  C9   11 d          -8.646 209.652 112.759  0.00  0.00     0.210 C 
ENDBRANCH   8  17
TORSDOF 1
ENDMDL
