MODEL 1
REMARK VINA RESULT:      -6.5      0.000      0.000
REMARK  5 active torsions:
REMARK  status: ('A' for Active; 'I' for Inactive)
REMARK    1  A    between atoms: C1_1  and  C2_4 
REMARK    2  A    between atoms: C2_4  and  P1_5 
REMARK    3  A    between atoms: P1_5  and  C3_6 
REMARK    4  A    between atoms: P1_5  and  C9_13 
REMARK    5  A    between atoms: C9_13  and  C10_14 
ROOT
ATOM      1  P1   11 d         -13.674 206.308 112.085  0.00  0.00     0.118 P 
ATOM      2  O3   11 d         -13.722 205.168 111.211  0.00  0.00    -0.316 OA
ENDROOT
BRANCH   1   3
ATOM      3  C2   11 d         -13.656 205.807 113.694  0.00  0.00     0.191 C 
BRANCH   3   4
ATOM      4  C1   11 d         -14.722 206.381 114.573  0.00  0.00     0.180 C 
ATOM      5  O1   11 d         -15.762 205.659 114.902  0.00  0.00    -0.648 OA
ATOM      6  O2   11 d         -14.513 207.522 115.180  0.00  0.00    -0.648 OA
ENDBRANCH   3   4
ENDBRANCH   1   3
BRANCH   1   7
ATOM      7  C3   11 d         -12.220 207.073 111.823  0.00  0.00     0.004 A 
ATOM      8  C4   11 d         -11.474 207.518 112.938  0.00  0.00     0.015 A 
ATOM      9  C5   11 d         -10.242 208.167 112.769  0.00  0.00     0.001 A 
ATOM     10  C6   11 d          -9.736 208.386 111.482  0.00  0.00     0.000 A 
ATOM     11  C7   11 d         -10.464 207.960 110.363  0.00  0.00     0.001 A 
ATOM     12  C8   11 d         -11.697 207.310 110.528  0.00  0.00     0.015 A 
ENDBRANCH   1   7
BRANCH   1  13
ATOM     13  C9   11 d         -14.990 207.307 111.739  0.00  0.00     0.078 C 
BRANCH  13  14
ATOM     14  C10  11 d         -16.107 206.653 110.903  0.00  0.00     0.003 C 
ATOM     15  C11  11 d         -17.245 206.138 111.782  0.00  0.00     0.005 C 
ENDBRANCH  13  14
ENDBRANCH   1  13
TORSDOF 5
ENDMDL
MODEL 2
REMARK VINA RESULT:      -6.2      1.721      4.478
REMARK  5 active torsions:
REMARK  status: ('A' for Active; 'I' for Inactive)
REMARK    1  A    between atoms: C1_1  and  C2_4 
REMARK    2  A    between atoms: C2_4  and  P1_5 
REMARK    3  A    between atoms: P1_5  and  C3_6 
REMARK    4  A    between atoms: P1_5  and  C9_13 
REMARK    5  A    between atoms: C9_13  and  C10_14 
ROOT
ATOM      1  P1   11 d         -12.898 206.947 113.410  0.00  0.00     0.118 P 
ATOM      2  O3   11 d         -12.825 208.333 113.787  0.00  0.00    -0.316 OA
ENDROOT
BRANCH   1   3
ATOM      3  C2   11 d         -12.999 205.976 114.784  0.00  0.00     0.191 C 
BRANCH   3   4
ATOM      4  C1   11 d         -12.783 206.666 116.094  0.00  0.00     0.180 C 
ATOM      5  O1   11 d         -11.570 206.932 116.504  0.00  0.00    -0.648 OA
ATOM      6  O2   11 d         -13.805 207.187 116.725  0.00  0.00    -0.648 OA
ENDBRANCH   3   4
ENDBRANCH   1   3
BRANCH   1   7
ATOM      7  C3   11 d         -14.327 206.733 112.585  0.00  0.00     0.004 A 
ATOM      8  C4   11 d         -15.442 206.208 113.280  0.00  0.00     0.015 A 
ATOM      9  C5   11 d         -16.668 206.011 112.629  0.00  0.00     0.001 A 
ATOM     10  C6   11 d         -16.802 206.329 111.272  0.00  0.00     0.000 A 
ATOM     11  C7   11 d         -15.707 206.843 110.564  0.00  0.00     0.001 A 
ATOM     12  C8   11 d         -14.478 207.043 111.212  0.00  0.00     0.015 A 
ENDBRANCH   1   7
BRANCH   1  13
ATOM     13  C9   11 d         -11.553 206.577 112.459  0.00  0.00     0.078 C 
BRANCH  13  14
ATOM     14  C10  11 d         -10.843 207.790 111.829  0.00  0.00     0.003 C 
ATOM     15  C11  11 d         -10.876 207.737 110.303  0.00  0.00     0.005 C 
ENDBRANCH  13  14
ENDBRANCH   1  13
TORSDOF 5
ENDMDL
MODEL 3
REMARK VINA RESULT:      -6.1      1.321      1.898
REMARK  5 active torsions:
REMARK  status: ('A' for Active; 'I' for Inactive)
REMARK    1  A    between atoms: C1_1  and  C2_4 
REMARK    2  A    between atoms: C2_4  and  P1_5 
REMARK    3  A    between atoms: P1_5  and  C3_6 
REMARK    4  A    between atoms: P1_5  and  C9_13 
REMARK    5  A    between atoms: C9_13  and  C10_14 
ROOT
ATOM      1  P1   11 d         -13.433 206.468 112.902  0.00  0.00     0.118 P 
ATOM      2  O3   11 d         -12.864 205.631 113.923  0.00  0.00    -0.316 OA
ENDROOT
BRANCH   1   3
ATOM      3  C2   11 d         -14.269 207.753 113.602  0.00  0.00     0.191 C 
BRANCH   3   4
ATOM      4  C1   11 d         -14.030 207.974 115.062  0.00  0.00     0.180 C 
ATOM      5  O1   11 d         -14.780 207.373 115.949  0.00  0.00    -0.648 OA
ATOM      6  O2   11 d         -12.947 208.598 115.451  0.00  0.00    -0.648 OA
ENDBRANCH   3   4
ENDBRANCH   1   3
BRANCH   1   7
ATOM      7  C3   11 d         -12.170 207.144 112.054  0.00  0.00     0.004 A 
ATOM      8  C4   11 d         -12.164 207.040 110.644  0.00  0.00     0.015 A 
ATOM      9  C5   11 d         -11.122 207.595 109.886  0.00  0.00     0.001 A 
ATOM     10  C6   11 d         -10.068 208.260 110.523  0.00  0.00     0.000 A 
ATOM     11  C7   11 d         -10.052 208.367 111.920  0.00  0.00     0.001 A 
ATOM     12  C8   11 d         -11.093 207.814 112.683  0.00  0.00     0.015 A 
ENDBRANCH   1   7
BRANCH   1  13
ATOM     13  C9   11 d         -14.422 205.518 111.918  0.00  0.00     0.078 C 
BRANCH  13  14
ATOM     14  C10  11 d         -15.651 206.240 111.332  0.00  0.00     0.003 C 
ATOM     15  C11  11 d         -16.951 205.762 111.978  0.00  0.00     0.005 C 
ENDBRANCH  13  14
ENDBRANCH   1  13
TORSDOF 5
ENDMDL
MODEL 4
REMARK VINA RESULT:      -6.1      1.833      4.810
REMARK  5 active torsions:
REMARK  status: ('A' for Active; 'I' for Inactive)
REMARK    1  A    between atoms: C1_1  and  C2_4 
REMARK    2  A    between atoms: C2_4  and  P1_5 
REMARK    3  A    between atoms: P1_5  and  C3_6 
REMARK    4  A    between atoms: P1_5  and  C9_13 
REMARK    5  A    between atoms: C9_13  and  C10_14 
ROOT
ATOM      1  P1   11 d         -12.952 207.093 113.479  0.00  0.00     0.118 P 
ATOM      2  O3   11 d         -13.059 208.395 114.080  0.00  0.00    -0.316 OA
ENDROOT
BRANCH   1   3
ATOM      3  C2   11 d         -12.818 205.911 114.672  0.00  0.00     0.191 C 
BRANCH   3   4
ATOM      4  C1   11 d         -12.459 206.397 116.041  0.00  0.00     0.180 C 
ATOM      5  O1   11 d         -13.347 206.371 117.001  0.00  0.00    -0.648 OA
ATOM      6  O2   11 d         -11.207 206.648 116.329  0.00  0.00    -0.648 OA
ENDBRANCH   3   4
ENDBRANCH   1   3
BRANCH   1   7
ATOM      7  C3   11 d         -14.386 206.793 112.689  0.00  0.00     0.004 A 
ATOM      8  C4   11 d         -14.492 207.130 111.320  0.00  0.00     0.015 A 
ATOM      9  C5   11 d         -15.679 206.895 110.611  0.00  0.00     0.001 A 
ATOM     10  C6   11 d         -16.782 206.324 111.258  0.00  0.00     0.000 A 
ATOM     11  C7   11 d         -16.699 205.991 112.616  0.00  0.00     0.001 A 
ATOM     12  C8   11 d         -15.513 206.223 113.329  0.00  0.00     0.015 A 
ENDBRANCH   1   7
BRANCH   1  13
ATOM     13  C9   11 d         -11.634 207.094 112.425  0.00  0.00     0.078 C 
BRANCH  13  14
ATOM     14  C10  11 d         -10.389 207.845 112.934  0.00  0.00     0.003 C 
ATOM     15  C11  11 d          -9.657 208.564 111.801  0.00  0.00     0.005 C 
ENDBRANCH  13  14
ENDBRANCH   1  13
TORSDOF 5
ENDMDL
MODEL 5
REMARK VINA RESULT:      -6.1      1.557      2.111
REMARK  5 active torsions:
REMARK  status: ('A' for Active; 'I' for Inactive)
REMARK    1  A    between atoms: C1_1  and  C2_4 
REMARK    2  A    between atoms: C2_4  and  P1_5 
REMARK    3  A    between atoms: P1_5  and  C3_6 
REMARK    4  A    between atoms: P1_5  and  C9_13 
REMARK    5  A    between atoms: C9_13  and  C10_14 
ROOT
ATOM      1  P1   11 d         -12.648 207.031 112.823  0.00  0.00     0.118 P 
ATOM      2  O3   11 d         -12.590 205.829 113.609  0.00  0.00    -0.316 OA
ENDROOT
BRANCH   1   3
ATOM      3  C2   11 d         -13.832 208.066 113.429  0.00  0.00     0.191 C 
BRANCH   3   4
ATOM      4  C1   11 d         -14.851 207.443 114.331  0.00  0.00     0.180 C 
ATOM      5  O1   11 d         -14.754 207.583 115.627  0.00  0.00    -0.648 OA
ATOM      6  O2   11 d         -15.945 206.941 113.818  0.00  0.00    -0.648 OA
ENDBRANCH   3   4
ENDBRANCH   1   3
BRANCH   1   7
ATOM      7  C3   11 d         -11.197 207.822 113.021  0.00  0.00     0.004 A 
ATOM      8  C4   11 d         -10.803 208.207 114.323  0.00  0.00     0.015 A 
ATOM      9  C5   11 d          -9.589 208.875 114.541  0.00  0.00     0.001 A 
ATOM     10  C6   11 d          -8.749 209.173 113.461  0.00  0.00     0.000 A 
ATOM     11  C7   11 d          -9.124 208.807 112.162  0.00  0.00     0.001 A 
ATOM     12  C8   11 d         -10.338 208.138 111.940  0.00  0.00     0.015 A 
ENDBRANCH   1   7
BRANCH   1  13
ATOM     13  C9   11 d         -12.927 206.609 111.213  0.00  0.00     0.078 C 
BRANCH  13  14
ATOM     14  C10  11 d         -14.270 205.903 110.945  0.00  0.00     0.003 C 
ATOM     15  C11  11 d         -15.277 206.836 110.273  0.00  0.00     0.005 C 
ENDBRANCH  13  14
ENDBRANCH   1  13
TORSDOF 5
ENDMDL
MODEL 6
REMARK VINA RESULT:      -5.7      2.332      4.416
REMARK  5 active torsions:
REMARK  status: ('A' for Active; 'I' for Inactive)
REMARK    1  A    between atoms: C1_1  and  C2_4 
REMARK    2  A    between atoms: C2_4  and  P1_5 
REMARK    3  A    between atoms: P1_5  and  C3_6 
REMARK    4  A    between atoms: P1_5  and  C9_13 
REMARK    5  A    between atoms: C9_13  and  C10_14 
ROOT
ATOM      1  P1   11 d         -13.400 206.803 114.241  0.00  0.00     0.118 P 
ATOM      2  O3   11 d         -12.460 205.715 114.236  0.00  0.00    -0.316 OA
ENDROOT
BRANCH   1   3
ATOM      3  C2   11 d         -12.589 208.270 114.420  0.00  0.00     0.191 C 
BRANCH   3   4
ATOM      4  C1   11 d         -11.095 208.195 114.452  0.00  0.00     0.180 C 
ATOM      5  O1   11 d         -10.415 208.158 113.335  0.00  0.00    -0.648 OA
ATOM      6  O2   11 d         -10.463 208.378 115.584  0.00  0.00    -0.648 OA
ENDBRANCH   3   4
ENDBRANCH   1   3
BRANCH   1   7
ATOM      7  C3   11 d         -14.113 206.850 112.738  0.00  0.00     0.004 A 
ATOM      8  C4   11 d         -15.523 206.911 112.656  0.00  0.00     0.015 A 
ATOM      9  C5   11 d         -16.171 206.953 111.412  0.00  0.00     0.001 A 
ATOM     10  C6   11 d         -15.421 206.931 110.230  0.00  0.00     0.000 A 
ATOM     11  C7   11 d         -14.023 206.862 110.290  0.00  0.00     0.001 A 
ATOM     12  C8   11 d         -13.371 206.821 111.532  0.00  0.00     0.015 A 
ENDBRANCH   1   7
BRANCH   1  13
ATOM     13  C9   11 d         -14.525 206.537 115.471  0.00  0.00     0.078 C 
BRANCH  13  14
ATOM     14  C10  11 d         -14.771 205.058 115.824  0.00  0.00     0.003 C 
ATOM     15  C11  11 d         -14.168 204.690 117.179  0.00  0.00     0.005 C 
ENDBRANCH  13  14
ENDBRANCH   1  13
TORSDOF 5
ENDMDL
MODEL 7
REMARK VINA RESULT:      -5.7      2.295      5.166
REMARK  5 active torsions:
REMARK  status: ('A' for Active; 'I' for Inactive)
REMARK    1  A    between atoms: C1_1  and  C2_4 
REMARK    2  A    between atoms: C2_4  and  P1_5 
REMARK    3  A    between atoms: P1_5  and  C3_6 
REMARK    4  A    between atoms: P1_5  and  C9_13 
REMARK    5  A    between atoms: C9_13  and  C10_14 
ROOT
ATOM      1  P1   11 d         -12.606 206.695 113.864  0.00  0.00     0.118 P 
ATOM      2  O3   11 d         -12.690 205.654 114.852  0.00  0.00    -0.316 OA
ENDROOT
BRANCH   1   3
ATOM      3  C2   11 d         -11.232 206.483 112.911  0.00  0.00     0.191 C 
BRANCH   3   4
ATOM      4  C1   11 d         -11.019 207.496 111.831  0.00  0.00     0.180 C 
ATOM      5  O1   11 d         -10.244 208.528 112.042  0.00  0.00    -0.648 OA
ATOM      6  O2   11 d         -11.436 207.242 110.616  0.00  0.00    -0.648 OA
ENDBRANCH   3   4
ENDBRANCH   1   3
BRANCH   1   7
ATOM      7  C3   11 d         -13.909 206.517 112.844  0.00  0.00     0.004 A 
ATOM      8  C4   11 d         -14.256 205.219 112.404  0.00  0.00     0.015 A 
ATOM      9  C5   11 d         -15.346 205.017 111.545  0.00  0.00     0.001 A 
ATOM     10  C6   11 d         -16.106 206.109 111.108  0.00  0.00     0.000 A 
ATOM     11  C7   11 d         -15.774 207.404 111.526  0.00  0.00     0.001 A 
ATOM     12  C8   11 d         -14.684 207.610 112.387  0.00  0.00     0.015 A 
ENDBRANCH   1   7
BRANCH   1  13
ATOM     13  C9   11 d         -12.616 208.187 114.654  0.00  0.00     0.078 C 
BRANCH  13  14
ATOM     14  C10  11 d         -11.663 208.296 115.859  0.00  0.00     0.003 C 
ATOM     15  C11  11 d         -10.388 209.061 115.507  0.00  0.00     0.005 C 
ENDBRANCH  13  14
ENDBRANCH   1  13
TORSDOF 5
ENDMDL
MODEL 8
REMARK VINA RESULT:      -5.6      1.839      2.355
REMARK  5 active torsions:
REMARK  status: ('A' for Active; 'I' for Inactive)
REMARK    1  A    between atoms: C1_1  and  C2_4 
REMARK    2  A    between atoms: C2_4  and  P1_5 
REMARK    3  A    between atoms: P1_5  and  C3_6 
REMARK    4  A    between atoms: P1_5  and  C9_13 
REMARK    5  A    between atoms: C9_13  and  C10_14 
ROOT
ATOM      1  P1   11 d         -13.697 207.008 114.217  0.00  0.00     0.118 P 
ATOM      2  O3   11 d         -13.576 205.639 114.641  0.00  0.00    -0.316 OA
ENDROOT
BRANCH   1   3
ATOM      3  C2   11 d         -13.267 208.045 115.474  0.00  0.00     0.191 C 
BRANCH   3   4
ATOM      4  C1   11 d         -13.043 207.405 116.807  0.00  0.00     0.180 C 
ATOM      5  O1   11 d         -11.829 207.275 117.278  0.00  0.00    -0.648 OA
ATOM      6  O2   11 d         -14.065 207.168 117.590  0.00  0.00    -0.648 OA
ENDBRANCH   3   4
ENDBRANCH   1   3
BRANCH   1   7
ATOM      7  C3   11 d         -12.578 207.254 113.010  0.00  0.00     0.004 A 
ATOM      8  C4   11 d         -11.361 207.897 113.332  0.00  0.00     0.015 A 
ATOM      9  C5   11 d         -10.385 208.126 112.350  0.00  0.00     0.001 A 
ATOM     10  C6   11 d         -10.611 207.720 111.030  0.00  0.00     0.000 A 
ATOM     11  C7   11 d         -11.815 207.088 110.689  0.00  0.00     0.001 A 
ATOM     12  C8   11 d         -12.792 206.856 111.668  0.00  0.00     0.015 A 
ENDBRANCH   1   7
BRANCH   1  13
ATOM     13  C9   11 d         -15.277 207.267 113.682  0.00  0.00     0.078 C 
BRANCH  13  14
ATOM     14  C10  11 d         -16.043 205.998 113.263  0.00  0.00     0.003 C 
ATOM     15  C11  11 d         -16.679 206.150 111.882  0.00  0.00     0.005 C 
ENDBRANCH  13  14
ENDBRANCH   1  13
TORSDOF 5
ENDMDL
MODEL 9
REMARK VINA RESULT:      -5.6      2.066      2.791
REMARK  5 active torsions:
REMARK  status: ('A' for Active; 'I' for Inactive)
REMARK    1  A    between atoms: C1_1  and  C2_4 
REMARK    2  A    between atoms: C2_4  and  P1_5 
REMARK    3  A    between atoms: P1_5  and  C3_6 
REMARK    4  A    between atoms: P1_5  and  C9_13 
REMARK    5  A    between atoms: C9_13  and  C10_14 
ROOT
ATOM      1  P1   11 d         -12.072 207.145 114.067  0.00  0.00     0.118 P 
ATOM      2  O3   11 d         -11.618 205.828 114.424  0.00  0.00    -0.316 OA
ENDROOT
BRANCH   1   3
ATOM      3  C2   11 d         -12.639 207.953 115.433  0.00  0.00     0.191 C 
BRANCH   3   4
ATOM      4  C1   11 d         -14.124 207.971 115.617  0.00  0.00     0.180 C 
ATOM      5  O1   11 d         -14.725 206.970 116.204  0.00  0.00    -0.648 OA
ATOM      6  O2   11 d         -14.790 209.073 115.382  0.00  0.00    -0.648 OA
ENDBRANCH   3   4
ENDBRANCH   1   3
BRANCH   1   7
ATOM      7  C3   11 d         -10.745 208.000 113.540  0.00  0.00     0.004 A 
ATOM      8  C4   11 d         -10.434 207.992 112.161  0.00  0.00     0.015 A 
ATOM      9  C5   11 d          -9.327 208.699 111.668  0.00  0.00     0.001 A 
ATOM     10  C6   11 d          -8.510 209.422 112.545  0.00  0.00     0.000 A 
ATOM     11  C7   11 d          -8.797 209.436 113.916  0.00  0.00     0.001 A 
ATOM     12  C8   11 d          -9.904 208.731 114.413  0.00  0.00     0.015 A 
ENDBRANCH   1   7
BRANCH   1  13
ATOM     13  C9   11 d         -13.253 207.001 112.870  0.00  0.00     0.078 C 
BRANCH  13  14
ATOM     14  C10  11 d         -13.952 205.630 112.801  0.00  0.00     0.003 C 
ATOM     15  C11  11 d         -14.354 205.270 111.371  0.00  0.00     0.005 C 
ENDBRANCH  13  14
ENDBRANCH   1  13
TORSDOF 5
ENDMDL
MODEL 10
REMARK VINA RESULT:      -5.3      2.639      4.492
REMARK  5 active torsions:
REMARK  status: ('A' for Active; 'I' for Inactive)
REMARK    1  A    between atoms: C1_1  and  C2_4 
REMARK    2  A    between atoms: C2_4  and  P1_5 
REMARK    3  A    between atoms: P1_5  and  C3_6 
REMARK    4  A    between atoms: P1_5  and  C9_13 
REMARK    5  A    between atoms: C9_13  and  C10_14 
ROOT
ATOM      1  P1   11 d         -11.884 207.424 115.000  0.00  0.00     0.118 P 
ATOM      2  O3   11 d         -12.920 208.388 115.256  0.00  0.00    -0.316 OA
ENDROOT
BRANCH   1   3
ATOM      3  C2   11 d         -12.479 206.175 114.038  0.00  0.00     0.191 C 
BRANCH   3   4
ATOM      4  C1   11 d         -13.960 205.964 114.076  0.00  0.00     0.180 C 
ATOM      5  O1   11 d         -14.531 205.509 115.162  0.00  0.00    -0.648 OA
ATOM      6  O2   11 d         -14.704 206.429 113.105  0.00  0.00    -0.648 OA
ENDBRANCH   3   4
ENDBRANCH   1   3
BRANCH   1   7
ATOM      7  C3   11 d         -10.711 208.185 114.097  0.00  0.00     0.004 A 
ATOM      8  C4   11 d         -10.670 207.955 112.702  0.00  0.00     0.015 A 
ATOM      9  C5   11 d          -9.702 208.574 111.898  0.00  0.00     0.001 A 
ATOM     10  C6   11 d          -8.755 209.429 112.474  0.00  0.00     0.000 A 
ATOM     11  C7   11 d          -8.773 209.663 113.856  0.00  0.00     0.001 A 
ATOM     12  C8   11 d          -9.741 209.046 114.663  0.00  0.00     0.015 A 
ENDBRANCH   1   7
BRANCH   1  13
ATOM     13  C9   11 d         -11.289 206.869 116.478  0.00  0.00     0.078 C 
BRANCH  13  14
ATOM     14  C10  11 d         -11.671 207.724 117.701  0.00  0.00     0.003 C 
ATOM     15  C11  11 d         -10.468 208.482 118.261  0.00  0.00     0.005 C 
ENDBRANCH  13  14
ENDBRANCH   1  13
TORSDOF 5
ENDMDL
