MODEL 1
REMARK VINA RESULT:      -9.8      0.000      0.000
REMARK  3 active torsions:
REMARK  status: ('A' for Active; 'I' for Inactive)
REMARK    1  A    between atoms: C19_24  and  O3_25 
REMARK    2  A    between atoms: O3_25  and  C20_26 
REMARK    3  A    between atoms: C20_26  and  C21_27 
ROOT
ATOM      1  C1   11 d         -12.579 206.524 118.534  0.00  0.00     0.157 A 
ATOM      2  C2   11 d         -11.572 207.358 117.910  0.00  0.00     0.285 A 
ATOM      3  N1   11 d         -11.589 207.127 116.521  0.00  0.00    -0.277 N 
ATOM      4  C3   11 d         -10.665 207.746 115.562  0.00  0.00     0.177 A 
ATOM      5  N2   11 d          -9.687 208.629 115.869  0.00  0.00    -0.228 NA
ATOM      6  C4   11 d          -9.024 209.025 114.748  0.00  0.00     0.046 A 
ATOM      7  C5   11 d          -9.534 208.380 113.618  0.00  0.00     0.006 A 
ATOM      8  S1   11 d         -10.635 207.483 114.086  0.00  0.00    -0.055 SA
ATOM      9  C6   11 d          -9.028 208.431 112.206  0.00  0.00     0.058 C 
ATOM     10  C7   11 d          -7.801 209.887 114.802  0.00  0.00     0.071 C 
ATOM     11  C8   11 d         -12.685 206.153 116.169  0.00  0.00     0.168 A 
ATOM     12  C9   11 d         -13.211 205.774 117.550  0.00  0.00     0.060 A 
ATOM     13  C10  11 d         -14.176 204.834 117.960  0.00  0.00     0.196 A 
ATOM     14  C11  11 d         -14.461 204.700 119.342  0.00  0.00     0.049 A 
ATOM     15  C12  11 d         -13.753 205.529 120.258  0.00  0.00     0.090 A 
ATOM     16  O1   11 d         -12.852 206.393 119.821  0.00  0.00    -0.303 OA
ATOM     17  C13  11 d         -13.991 205.419 121.636  0.00  0.00     0.038 A 
ATOM     18  C14  11 d         -14.929 204.493 122.117  0.00  0.00     0.003 A 
ATOM     19  C15  11 d         -15.633 203.673 121.222  0.00  0.00     0.001 A 
ATOM     20  C16  11 d         -15.404 203.774 119.840  0.00  0.00     0.018 A 
ATOM     21  O2   11 d         -14.742 204.093 117.120  0.00  0.00    -0.287 OA
ATOM     22  C17  11 d         -13.763 206.739 115.252  0.00  0.00    -0.028 A 
ATOM     23  C18  11 d         -14.744 205.896 114.681  0.00  0.00     0.046 A 
ATOM     24  C19  11 d         -15.689 206.393 113.768  0.00  0.00     0.069 A 
ATOM     25  C23  11 d         -15.661 207.745 113.402  0.00  0.00     0.037 A 
ATOM     26  C24  11 d         -14.725 208.608 113.981  0.00  0.00     0.003 A 
ATOM     27  C25  11 d         -13.784 208.110 114.894  0.00  0.00     0.010 A 
ATOM     28  O4   11 d         -10.765 208.141 118.525  0.00  0.00    -0.265 OA
ENDROOT
BRANCH  24  29
ATOM     29  O3   11 d         -16.535 205.491 113.072  0.00  0.00    -0.348 OA
BRANCH  29  30
ATOM     30  C20  11 d         -16.537 205.799 111.658  0.00  0.00     0.202 C 
BRANCH  30  31
ATOM     31  C21  11 d         -15.206 205.379 111.106  0.00  0.00    -0.011 C 
ATOM     32  C22  11 d         -14.463 206.181 110.334  0.00  0.00     0.009 C 
ENDBRANCH  30  31
ENDBRANCH  29  30
ENDBRANCH  24  29
TORSDOF 3
ENDMDL
MODEL 2
REMARK VINA RESULT:      -9.2      2.293      6.506
REMARK  3 active torsions:
REMARK  status: ('A' for Active; 'I' for Inactive)
REMARK    1  A    between atoms: C19_24  and  O3_25 
REMARK    2  A    between atoms: O3_25  and  C20_26 
REMARK    3  A    between atoms: C20_26  and  C21_27 
ROOT
ATOM      1  C1   11 d         -10.264 207.316 117.855  0.00  0.00     0.157 A 
ATOM      2  C2   11 d         -10.877 206.653 118.988  0.00  0.00     0.285 A 
ATOM      3  N1   11 d         -12.274 206.808 118.903  0.00  0.00    -0.277 N 
ATOM      4  C3   11 d         -13.228 206.323 119.907  0.00  0.00     0.177 A 
ATOM      5  N2   11 d         -12.908 205.653 121.038  0.00  0.00    -0.228 NA
ATOM      6  C4   11 d         -14.027 205.331 121.743  0.00  0.00     0.046 A 
ATOM      7  C5   11 d         -15.172 205.814 121.101  0.00  0.00     0.006 A 
ATOM      8  S1   11 d         -14.715 206.514 119.861  0.00  0.00    -0.055 SA
ATOM      9  C6   11 d         -16.593 205.788 121.582  0.00  0.00     0.058 C 
ATOM     10  C7   11 d         -13.968 204.714 123.105  0.00  0.00     0.071 C 
ATOM     11  C8   11 d         -12.639 207.544 117.638  0.00  0.00     0.168 A 
ATOM     12  C9   11 d         -11.263 207.887 117.077  0.00  0.00     0.060 A 
ATOM     13  C10  11 d         -10.870 208.651 115.961  0.00  0.00     0.196 A 
ATOM     14  C11  11 d          -9.489 208.799 115.681  0.00  0.00     0.049 A 
ATOM     15  C12  11 d          -8.555 208.162 116.548  0.00  0.00     0.090 A 
ATOM     16  O1   11 d          -8.978 207.458 117.585  0.00  0.00    -0.303 OA
ATOM     17  C13  11 d          -7.178 208.294 116.318  0.00  0.00     0.038 A 
ATOM     18  C14  11 d          -6.714 209.053 115.233  0.00  0.00     0.003 A 
ATOM     19  C15  11 d          -7.626 209.683 114.373  0.00  0.00     0.001 A 
ATOM     20  C16  11 d          -9.008 209.558 114.591  0.00  0.00     0.018 A 
ATOM     21  O2   11 d         -11.727 209.233 115.251  0.00  0.00    -0.287 OA
ATOM     22  C17  11 d         -13.499 206.724 116.671  0.00  0.00    -0.028 A 
ATOM     23  C18  11 d         -14.081 207.341 115.540  0.00  0.00     0.046 A 
ATOM     24  C19  11 d         -14.944 206.634 114.687  0.00  0.00     0.069 A 
ATOM     25  C23  11 d         -15.250 205.294 114.959  0.00  0.00     0.037 A 
ATOM     26  C24  11 d         -14.658 204.649 116.051  0.00  0.00     0.003 A 
ATOM     27  C25  11 d         -13.794 205.356 116.899  0.00  0.00     0.010 A 
ATOM     28  O4   11 d         -10.249 206.064 119.937  0.00  0.00    -0.265 OA
ENDROOT
BRANCH  24  29
ATOM     29  O3   11 d         -15.657 207.328 113.676  0.00  0.00    -0.348 OA
BRANCH  29  30
ATOM     30  C20  11 d         -15.039 207.106 112.386  0.00  0.00     0.202 C 
BRANCH  30  31
ATOM     31  C21  11 d         -16.113 206.642 111.448  0.00  0.00    -0.011 C 
ATOM     32  C22  11 d         -17.218 206.017 111.872  0.00  0.00     0.009 C 
ENDBRANCH  30  31
ENDBRANCH  29  30
ENDBRANCH  24  29
TORSDOF 3
ENDMDL
MODEL 3
REMARK VINA RESULT:      -7.7      4.105      7.709
REMARK  3 active torsions:
REMARK  status: ('A' for Active; 'I' for Inactive)
REMARK    1  A    between atoms: C19_24  and  O3_25 
REMARK    2  A    between atoms: O3_25  and  C20_26 
REMARK    3  A    between atoms: C20_26  and  C21_27 
ROOT
ATOM      1  C1   11 d         -13.188 204.230 122.771  0.00  0.00     0.157 A 
ATOM      2  C2   11 d         -14.601 204.041 123.025  0.00  0.00     0.285 A 
ATOM      3  N1   11 d         -15.334 204.671 122.001  0.00  0.00    -0.277 N 
ATOM      4  C3   11 d         -16.800 204.746 121.951  0.00  0.00     0.177 A 
ATOM      5  N2   11 d         -17.647 204.214 122.862  0.00  0.00    -0.228 NA
ATOM      6  C4   11 d         -18.941 204.445 122.511  0.00  0.00     0.046 A 
ATOM      7  C5   11 d         -19.009 205.188 121.329  0.00  0.00     0.006 A 
ATOM      8  S1   11 d         -17.601 205.448 120.895  0.00  0.00    -0.055 SA
ATOM      9  C6   11 d         -20.220 205.760 120.653  0.00  0.00     0.058 C 
ATOM     10  C7   11 d         -20.090 204.096 123.406  0.00  0.00     0.071 C 
ATOM     11  C8   11 d         -14.397 205.257 120.975  0.00  0.00     0.168 A 
ATOM     12  C9   11 d         -13.038 204.978 121.610  0.00  0.00     0.060 A 
ATOM     13  C10  11 d         -11.732 205.342 121.227  0.00  0.00     0.196 A 
ATOM     14  C11  11 d         -10.641 204.930 122.031  0.00  0.00     0.049 A 
ATOM     15  C12  11 d         -10.917 204.161 123.198  0.00  0.00     0.090 A 
ATOM     16  O1   11 d         -12.163 203.850 123.515  0.00  0.00    -0.303 OA
ATOM     17  C13  11 d          -9.869 203.746 124.032  0.00  0.00     0.038 A 
ATOM     18  C14  11 d          -8.544 204.086 123.720  0.00  0.00     0.003 A 
ATOM     19  C15  11 d          -8.261 204.841 122.572  0.00  0.00     0.001 A 
ATOM     20  C16  11 d          -9.302 205.263 121.728  0.00  0.00     0.018 A 
ATOM     21  O2   11 d         -11.541 206.060 120.215  0.00  0.00    -0.287 OA
ATOM     22  C17  11 d         -14.548 204.647 119.579  0.00  0.00    -0.028 A 
ATOM     23  C18  11 d         -13.881 205.225 118.475  0.00  0.00     0.046 A 
ATOM     24  C19  11 d         -14.072 204.739 117.171  0.00  0.00     0.069 A 
ATOM     25  C23  11 d         -14.948 203.669 116.947  0.00  0.00     0.037 A 
ATOM     26  C24  11 d         -15.593 203.054 118.026  0.00  0.00     0.003 A 
ATOM     27  C25  11 d         -15.397 203.539 119.327  0.00  0.00     0.010 A 
ATOM     28  O4   11 d         -15.104 203.441 124.040  0.00  0.00    -0.265 OA
ENDROOT
BRANCH  24  29
ATOM     29  O3   11 d         -13.539 205.456 116.068  0.00  0.00    -0.348 OA
BRANCH  29  30
ATOM     30  C20  11 d         -14.535 206.359 115.532  0.00  0.00     0.202 C 
BRANCH  30  31
ATOM     31  C21  11 d         -14.142 207.750 115.934  0.00  0.00    -0.011 C 
ATOM     32  C22  11 d         -14.556 208.835 115.269  0.00  0.00     0.009 C 
ENDBRANCH  30  31
ENDBRANCH  29  30
ENDBRANCH  24  29
TORSDOF 3
ENDMDL
MODEL 4
REMARK VINA RESULT:      -7.6      2.320      6.612
REMARK  3 active torsions:
REMARK  status: ('A' for Active; 'I' for Inactive)
REMARK    1  A    between atoms: C19_24  and  O3_25 
REMARK    2  A    between atoms: O3_25  and  C20_26 
REMARK    3  A    between atoms: C20_26  and  C21_27 
ROOT
ATOM      1  C1   11 d         -12.075 207.418 112.478  0.00  0.00     0.157 A 
ATOM      2  C2   11 d         -10.641 207.618 112.532  0.00  0.00     0.285 A 
ATOM      3  N1   11 d         -10.317 208.251 113.748  0.00  0.00    -0.277 N 
ATOM      4  C3   11 d          -8.964 208.672 114.133  0.00  0.00     0.177 A 
ATOM      5  N2   11 d          -7.846 208.501 113.391  0.00  0.00    -0.228 NA
ATOM      6  C4   11 d          -6.754 208.987 114.044  0.00  0.00     0.046 A 
ATOM      7  C5   11 d          -7.119 209.543 115.274  0.00  0.00     0.006 A 
ATOM      8  S1   11 d          -8.601 209.386 115.401  0.00  0.00    -0.055 SA
ATOM      9  C6   11 d          -6.261 210.287 116.254  0.00  0.00     0.058 C 
ATOM     10  C7   11 d          -5.404 209.063 113.402  0.00  0.00     0.071 C 
ATOM     11  C8   11 d         -11.558 208.434 114.585  0.00  0.00     0.168 A 
ATOM     12  C9   11 d         -12.641 207.929 113.639  0.00  0.00     0.060 A 
ATOM     13  C10  11 d         -14.045 207.904 113.749  0.00  0.00     0.196 A 
ATOM     14  C11  11 d         -14.809 207.362 112.686  0.00  0.00     0.049 A 
ATOM     15  C12  11 d         -14.115 206.863 111.546  0.00  0.00     0.090 A 
ATOM     16  O1   11 d         -12.795 206.913 111.491  0.00  0.00    -0.303 OA
ATOM     17  C13  11 d         -14.832 206.331 110.464  0.00  0.00     0.038 A 
ATOM     18  C14  11 d         -16.234 206.289 110.499  0.00  0.00     0.003 A 
ATOM     19  C15  11 d         -16.925 206.776 111.617  0.00  0.00     0.001 A 
ATOM     20  C16  11 d         -16.220 207.310 112.709  0.00  0.00     0.018 A 
ATOM     21  O2   11 d         -14.615 208.398 114.753  0.00  0.00    -0.287 OA
ATOM     22  C17  11 d         -11.521 207.681 115.919  0.00  0.00    -0.028 A 
ATOM     23  C18  11 d         -12.520 207.912 116.891  0.00  0.00     0.046 A 
ATOM     24  C19  11 d         -12.461 207.301 118.156  0.00  0.00     0.069 A 
ATOM     25  C23  11 d         -11.390 206.456 118.472  0.00  0.00     0.037 A 
ATOM     26  C24  11 d         -10.408 206.182 117.514  0.00  0.00     0.003 A 
ATOM     27  C25  11 d         -10.471 206.789 116.253  0.00  0.00     0.010 A 
ATOM     28  O4   11 d          -9.809 207.314 111.606  0.00  0.00    -0.265 OA
ENDROOT
BRANCH  24  29
ATOM     29  O3   11 d         -13.371 207.698 119.170  0.00  0.00    -0.348 OA
BRANCH  29  30
ATOM     30  C20  11 d         -14.193 206.576 119.570  0.00  0.00     0.202 C 
BRANCH  30  31
ATOM     31  C21  11 d         -15.232 207.097 120.519  0.00  0.00    -0.011 C 
ATOM     32  C22  11 d         -16.019 206.288 121.238  0.00  0.00     0.009 C 
ENDBRANCH  30  31
ENDBRANCH  29  30
ENDBRANCH  24  29
TORSDOF 3
ENDMDL
MODEL 5
REMARK VINA RESULT:      -7.4      2.980      6.469
REMARK  3 active torsions:
REMARK  status: ('A' for Active; 'I' for Inactive)
REMARK    1  A    between atoms: C19_24  and  O3_25 
REMARK    2  A    between atoms: O3_25  and  C20_26 
REMARK    3  A    between atoms: C20_26  and  C21_27 
ROOT
ATOM      1  C1   11 d          -9.796 207.261 118.526  0.00  0.00     0.157 A 
ATOM      2  C2   11 d         -10.576 207.595 117.351  0.00  0.00     0.285 A 
ATOM      3  N1   11 d         -11.733 206.792 117.332  0.00  0.00    -0.277 N 
ATOM      4  C3   11 d         -12.736 206.801 116.260  0.00  0.00     0.177 A 
ATOM      5  N2   11 d         -12.702 207.584 115.158  0.00  0.00    -0.228 NA
ATOM      6  C4   11 d         -13.792 207.361 114.373  0.00  0.00     0.046 A 
ATOM      7  C5   11 d         -14.606 206.369 114.927  0.00  0.00     0.006 A 
ATOM      8  S1   11 d         -13.952 205.925 116.196  0.00  0.00    -0.055 SA
ATOM      9  C6   11 d         -15.833 205.734 114.342  0.00  0.00     0.058 C 
ATOM     10  C7   11 d         -13.946 207.982 113.020  0.00  0.00     0.071 C 
ATOM     11  C8   11 d         -11.783 205.924 118.565  0.00  0.00     0.168 A 
ATOM     12  C9   11 d         -10.450 206.256 119.226  0.00  0.00     0.060 A 
ATOM     13  C10  11 d          -9.812 205.729 120.366  0.00  0.00     0.196 A 
ATOM     14  C11  11 d          -8.549 206.246 120.748  0.00  0.00     0.049 A 
ATOM     15  C12  11 d          -7.979 207.282 119.954  0.00  0.00     0.090 A 
ATOM     16  O1   11 d          -8.618 207.738 118.889  0.00  0.00    -0.303 OA
ATOM     17  C13  11 d          -6.723 207.812 120.285  0.00  0.00     0.038 A 
ATOM     18  C14  11 d          -6.024 207.325 121.399  0.00  0.00     0.003 A 
ATOM     19  C15  11 d          -6.578 206.306 122.188  0.00  0.00     0.001 A 
ATOM     20  C16  11 d          -7.835 205.767 121.868  0.00  0.00     0.018 A 
ATOM     21  O2   11 d         -10.332 204.784 121.009  0.00  0.00    -0.287 OA
ATOM     22  C17  11 d         -12.990 206.200 119.467  0.00  0.00    -0.028 A 
ATOM     23  C18  11 d         -13.278 205.338 120.550  0.00  0.00     0.046 A 
ATOM     24  C19  11 d         -14.427 205.518 121.338  0.00  0.00     0.069 A 
ATOM     25  C23  11 d         -15.317 206.560 121.047  0.00  0.00     0.037 A 
ATOM     26  C24  11 d         -15.036 207.449 120.004  0.00  0.00     0.003 A 
ATOM     27  C25  11 d         -13.887 207.270 119.221  0.00  0.00     0.010 A 
ATOM     28  O4   11 d         -10.246 208.446 116.453  0.00  0.00    -0.265 OA
ENDROOT
BRANCH  24  29
ATOM     29  O3   11 d         -14.786 204.530 122.292  0.00  0.00    -0.348 OA
BRANCH  29  30
ATOM     30  C20  11 d         -16.189 204.198 122.164  0.00  0.00     0.202 C 
BRANCH  30  31
ATOM     31  C21  11 d         -16.297 203.084 121.165  0.00  0.00    -0.011 C 
ATOM     32  C22  11 d         -17.045 203.180 120.059  0.00  0.00     0.009 C 
ENDBRANCH  30  31
ENDBRANCH  29  30
ENDBRANCH  24  29
TORSDOF 3
ENDMDL
MODEL 6
REMARK VINA RESULT:      -7.4      3.561      5.867
REMARK  3 active torsions:
REMARK  status: ('A' for Active; 'I' for Inactive)
REMARK    1  A    between atoms: C19_24  and  O3_25 
REMARK    2  A    between atoms: O3_25  and  C20_26 
REMARK    3  A    between atoms: C20_26  and  C21_27 
ROOT
ATOM      1  C1   11 d         -16.071 204.769 121.856  0.00  0.00     0.157 A 
ATOM      2  C2   11 d         -14.866 205.180 122.548  0.00  0.00     0.285 A 
ATOM      3  N1   11 d         -13.767 205.006 121.685  0.00  0.00    -0.277 N 
ATOM      4  C3   11 d         -12.369 205.258 122.057  0.00  0.00     0.177 A 
ATOM      5  N2   11 d         -11.943 205.702 123.261  0.00  0.00    -0.228 NA
ATOM      6  C4   11 d         -10.589 205.848 123.271  0.00  0.00     0.046 A 
ATOM      7  C5   11 d         -10.041 205.469 122.043  0.00  0.00     0.006 A 
ATOM      8  S1   11 d         -11.178 205.039 121.172  0.00  0.00    -0.055 SA
ATOM      9  C6   11 d          -8.595 205.361 121.659  0.00  0.00     0.058 C 
ATOM     10  C7   11 d          -9.828 206.188 124.515  0.00  0.00     0.071 C 
ATOM     11  C8   11 d         -14.236 204.522 120.336  0.00  0.00     0.168 A 
ATOM     12  C9   11 d         -15.729 204.334 120.582  0.00  0.00     0.060 A 
ATOM     13  C10  11 d         -16.755 203.814 119.769  0.00  0.00     0.196 A 
ATOM     14  C11  11 d         -18.076 203.762 120.277  0.00  0.00     0.049 A 
ATOM     15  C12  11 d         -18.307 204.243 121.598  0.00  0.00     0.090 A 
ATOM     16  O1   11 d         -17.307 204.718 122.322  0.00  0.00    -0.303 OA
ATOM     17  C13  11 d         -19.596 204.197 122.148  0.00  0.00     0.038 A 
ATOM     18  C14  11 d         -20.664 203.678 121.400  0.00  0.00     0.003 A 
ATOM     19  C15  11 d         -20.446 203.204 120.098  0.00  0.00     0.001 A 
ATOM     20  C16  11 d         -19.160 203.245 119.535  0.00  0.00     0.018 A 
ATOM     21  O2   11 d         -16.495 203.359 118.627  0.00  0.00    -0.287 OA
ATOM     22  C17  11 d         -13.929 205.491 119.190  0.00  0.00    -0.028 A 
ATOM     23  C18  11 d         -14.130 205.091 117.849  0.00  0.00     0.046 A 
ATOM     24  C19  11 d         -13.774 205.927 116.778  0.00  0.00     0.069 A 
ATOM     25  C23  11 d         -13.199 207.179 117.032  0.00  0.00     0.037 A 
ATOM     26  C24  11 d         -13.024 207.614 118.350  0.00  0.00     0.003 A 
ATOM     27  C25  11 d         -13.382 206.779 119.417  0.00  0.00     0.010 A 
ATOM     28  O4   11 d         -14.805 205.588 123.761  0.00  0.00    -0.265 OA
ENDROOT
BRANCH  24  29
ATOM     29  O3   11 d         -13.812 205.424 115.452  0.00  0.00    -0.348 OA
BRANCH  29  30
ATOM     30  C20  11 d         -13.756 206.516 114.502  0.00  0.00     0.202 C 
BRANCH  30  31
ATOM     31  C21  11 d         -12.700 206.176 113.491  0.00  0.00    -0.011 C 
ATOM     32  C22  11 d         -11.406 206.460 113.680  0.00  0.00     0.009 C 
ENDBRANCH  30  31
ENDBRANCH  29  30
ENDBRANCH  24  29
TORSDOF 3
ENDMDL
MODEL 7
REMARK VINA RESULT:      -7.4      4.852      8.949
REMARK  3 active torsions:
REMARK  status: ('A' for Active; 'I' for Inactive)
REMARK    1  A    between atoms: C19_24  and  O3_25 
REMARK    2  A    between atoms: O3_25  and  C20_26 
REMARK    3  A    between atoms: C20_26  and  C21_27 
ROOT
ATOM      1  C1   11 d          -5.369 208.530 116.437  0.00  0.00     0.157 A 
ATOM      2  C2   11 d          -4.699 208.626 117.719  0.00  0.00     0.285 A 
ATOM      3  N1   11 d          -5.656 208.908 118.711  0.00  0.00    -0.277 N 
ATOM      4  C3   11 d          -5.345 209.138 120.128  0.00  0.00     0.177 A 
ATOM      5  N2   11 d          -4.111 209.096 120.679  0.00  0.00    -0.228 NA
ATOM      6  C4   11 d          -4.171 209.335 122.018  0.00  0.00     0.046 A 
ATOM      7  C5   11 d          -5.487 209.580 122.418  0.00  0.00     0.006 A 
ATOM      8  S1   11 d          -6.342 209.484 121.194  0.00  0.00    -0.055 SA
ATOM      9  C6   11 d          -5.990 209.999 123.768  0.00  0.00     0.058 C 
ATOM     10  C7   11 d          -2.943 209.492 122.860  0.00  0.00     0.071 C 
ATOM     11  C8   11 d          -7.038 208.945 118.106  0.00  0.00     0.168 A 
ATOM     12  C9   11 d          -6.726 208.761 116.624  0.00  0.00     0.060 A 
ATOM     13  C10  11 d          -7.549 208.792 115.482  0.00  0.00     0.196 A 
ATOM     14  C11  11 d          -6.966 208.583 114.208  0.00  0.00     0.049 A 
ATOM     15  C12  11 d          -5.562 208.350 114.141  0.00  0.00     0.090 A 
ATOM     16  O1   11 d          -4.833 208.336 115.245  0.00  0.00    -0.303 OA
ATOM     17  C13  11 d          -4.940 208.154 112.900  0.00  0.00     0.038 A 
ATOM     18  C14  11 d          -5.697 208.186 111.719  0.00  0.00     0.003 A 
ATOM     19  C15  11 d          -7.080 208.413 111.775  0.00  0.00     0.001 A 
ATOM     20  C16  11 d          -7.716 208.610 113.012  0.00  0.00     0.018 A 
ATOM     21  O2   11 d          -8.775 209.047 115.586  0.00  0.00    -0.287 OA
ATOM     22  C17  11 d          -7.985 207.878 118.661  0.00  0.00    -0.028 A 
ATOM     23  C18  11 d          -9.361 207.912 118.336  0.00  0.00     0.046 A 
ATOM     24  C19  11 d         -10.266 206.998 118.902  0.00  0.00     0.069 A 
ATOM     25  C23  11 d          -9.809 206.038 119.814  0.00  0.00     0.037 A 
ATOM     26  C24  11 d          -8.447 205.959 120.124  0.00  0.00     0.003 A 
ATOM     27  C25  11 d          -7.545 206.870 119.556  0.00  0.00     0.010 A 
ATOM     28  O4   11 d          -3.436 208.518 117.910  0.00  0.00    -0.265 OA
ENDROOT
BRANCH  24  29
ATOM     29  O3   11 d         -11.660 207.176 118.705  0.00  0.00    -0.348 OA
BRANCH  29  30
ATOM     30  C20  11 d         -11.948 207.341 117.296  0.00  0.00     0.202 C 
BRANCH  30  31
ATOM     31  C21  11 d         -12.056 205.970 116.697  0.00  0.00    -0.011 C 
ATOM     32  C22  11 d         -11.733 205.714 115.424  0.00  0.00     0.009 C 
ENDBRANCH  30  31
ENDBRANCH  29  30
ENDBRANCH  24  29
TORSDOF 3
ENDMDL
MODEL 8
REMARK VINA RESULT:      -7.3      5.234     10.585
REMARK  3 active torsions:
REMARK  status: ('A' for Active; 'I' for Inactive)
REMARK    1  A    between atoms: C19_24  and  O3_25 
REMARK    2  A    between atoms: O3_25  and  C20_26 
REMARK    3  A    between atoms: C20_26  and  C21_27 
ROOT
ATOM      1  C1   11 d          -8.870 208.256 117.329  0.00  0.00     0.157 A 
ATOM      2  C2   11 d          -9.341 207.827 118.631  0.00  0.00     0.285 A 
ATOM      3  N1   11 d          -8.241 207.735 119.504  0.00  0.00    -0.277 N 
ATOM      4  C3   11 d          -8.318 207.270 120.895  0.00  0.00     0.177 A 
ATOM      5  N2   11 d          -9.445 206.884 121.534  0.00  0.00    -0.228 NA
ATOM      6  C4   11 d          -9.175 206.530 122.820  0.00  0.00     0.046 A 
ATOM      7  C5   11 d          -7.807 206.644 123.088  0.00  0.00     0.006 A 
ATOM      8  S1   11 d          -7.154 207.122 121.830  0.00  0.00    -0.055 SA
ATOM      9  C6   11 d          -7.063 206.248 124.328  0.00  0.00     0.058 C 
ATOM     10  C7   11 d         -10.207 205.925 123.720  0.00  0.00     0.071 C 
ATOM     11  C8   11 d          -6.981 208.176 118.801  0.00  0.00     0.168 A 
ATOM     12  C9   11 d          -7.491 208.419 117.385  0.00  0.00     0.060 A 
ATOM     13  C10  11 d          -6.822 208.759 116.193  0.00  0.00     0.196 A 
ATOM     14  C11  11 d          -7.576 208.922 115.004  0.00  0.00     0.049 A 
ATOM     15  C12  11 d          -8.986 208.734 115.071  0.00  0.00     0.090 A 
ATOM     16  O1   11 d          -9.565 208.411 116.216  0.00  0.00    -0.303 OA
ATOM     17  C13  11 d          -9.770 208.870 113.916  0.00  0.00     0.038 A 
ATOM     18  C14  11 d          -9.168 209.193 112.690  0.00  0.00     0.003 A 
ATOM     19  C15  11 d          -7.780 209.382 112.615  0.00  0.00     0.001 A 
ATOM     20  C16  11 d          -6.984 209.249 113.764  0.00  0.00     0.018 A 
ATOM     21  O2   11 d          -5.572 208.869 116.172  0.00  0.00    -0.287 OA
ATOM     22  C17  11 d          -6.323 209.409 119.427  0.00  0.00    -0.028 A 
ATOM     23  C18  11 d          -5.039 209.820 119.002  0.00  0.00     0.046 A 
ATOM     24  C19  11 d          -4.376 210.894 119.620  0.00  0.00     0.069 A 
ATOM     25  C23  11 d          -4.986 211.570 120.685  0.00  0.00     0.037 A 
ATOM     26  C24  11 d          -6.272 211.207 121.100  0.00  0.00     0.003 A 
ATOM     27  C25  11 d          -6.932 210.137 120.480  0.00  0.00     0.010 A 
ATOM     28  O4   11 d         -10.553 207.534 118.926  0.00  0.00    -0.265 OA
ENDROOT
BRANCH  24  29
ATOM     29  O3   11 d          -3.019 211.160 119.301  0.00  0.00    -0.348 OA
BRANCH  29  30
ATOM     30  C20  11 d          -2.290 211.538 120.493  0.00  0.00     0.202 C 
BRANCH  30  31
ATOM     31  C21  11 d          -1.427 212.713 120.138  0.00  0.00    -0.011 C 
ATOM     32  C22  11 d          -1.775 213.973 120.425  0.00  0.00     0.009 C 
ENDBRANCH  30  31
ENDBRANCH  29  30
ENDBRANCH  24  29
TORSDOF 3
ENDMDL
MODEL 9
REMARK VINA RESULT:      -7.3      4.471      8.782
REMARK  3 active torsions:
REMARK  status: ('A' for Active; 'I' for Inactive)
REMARK    1  A    between atoms: C19_24  and  O3_25 
REMARK    2  A    between atoms: O3_25  and  C20_26 
REMARK    3  A    between atoms: C20_26  and  C21_27 
ROOT
ATOM      1  C1   11 d          -6.381 209.013 115.138  0.00  0.00     0.157 A 
ATOM      2  C2   11 d          -5.216 209.298 115.950  0.00  0.00     0.285 A 
ATOM      3  N1   11 d          -5.617 209.415 117.294  0.00  0.00    -0.277 N 
ATOM      4  C3   11 d          -4.720 209.762 118.404  0.00  0.00     0.177 A 
ATOM      5  N2   11 d          -3.393 210.001 118.298  0.00  0.00    -0.228 NA
ATOM      6  C4   11 d          -2.853 210.277 119.517  0.00  0.00     0.046 A 
ATOM      7  C5   11 d          -3.837 210.258 120.510  0.00  0.00     0.006 A 
ATOM      8  S1   11 d          -5.132 209.936 119.836  0.00  0.00    -0.055 SA
ATOM      9  C6   11 d          -3.706 210.618 121.960  0.00  0.00     0.058 C 
ATOM     10  C7   11 d          -1.433 210.720 119.683  0.00  0.00     0.071 C 
ATOM     11  C8   11 d          -7.095 209.139 117.422  0.00  0.00     0.168 A 
ATOM     12  C9   11 d          -7.499 208.963 115.962  0.00  0.00     0.060 A 
ATOM     13  C10  11 d          -8.755 208.775 115.353  0.00  0.00     0.196 A 
ATOM     14  C11  11 d          -8.823 208.641 113.944  0.00  0.00     0.049 A 
ATOM     15  C12  11 d          -7.608 208.703 113.204  0.00  0.00     0.090 A 
ATOM     16  O1   11 d          -6.454 208.886 113.824  0.00  0.00    -0.303 OA
ATOM     17  C13  11 d          -7.629 208.590 111.806  0.00  0.00     0.038 A 
ATOM     18  C14  11 d          -8.847 208.416 111.131  0.00  0.00     0.003 A 
ATOM     19  C15  11 d         -10.049 208.352 111.852  0.00  0.00     0.001 A 
ATOM     20  C16  11 d         -10.041 208.462 113.253  0.00  0.00     0.018 A 
ATOM     21  O2   11 d          -9.804 208.773 116.043  0.00  0.00    -0.287 OA
ATOM     22  C17  11 d          -7.423 207.921 118.291  0.00  0.00    -0.028 A 
ATOM     23  C18  11 d          -8.761 207.654 118.661  0.00  0.00     0.046 A 
ATOM     24  C19  11 d          -9.079 206.596 119.529  0.00  0.00     0.069 A 
ATOM     25  C23  11 d          -8.058 205.790 120.050  0.00  0.00     0.037 A 
ATOM     26  C24  11 d          -6.730 206.009 119.669  0.00  0.00     0.003 A 
ATOM     27  C25  11 d          -6.415 207.064 118.801  0.00  0.00     0.010 A 
ATOM     28  O4   11 d          -4.023 209.463 115.511  0.00  0.00    -0.265 OA
ENDROOT
BRANCH  24  29
ATOM     29  O3   11 d         -10.401 206.471 120.030  0.00  0.00    -0.348 OA
BRANCH  29  30
ATOM     30  C20  11 d         -11.235 205.775 119.073  0.00  0.00     0.202 C 
BRANCH  30  31
ATOM     31  C21  11 d         -12.459 206.613 118.852  0.00  0.00    -0.011 C 
ATOM     32  C22  11 d         -12.520 207.563 117.911  0.00  0.00     0.009 C 
ENDBRANCH  30  31
ENDBRANCH  29  30
ENDBRANCH  24  29
TORSDOF 3
ENDMDL
MODEL 10
REMARK VINA RESULT:      -7.2      6.695     10.757
REMARK  3 active torsions:
REMARK  status: ('A' for Active; 'I' for Inactive)
REMARK    1  A    between atoms: C19_24  and  O3_25 
REMARK    2  A    between atoms: O3_25  and  C20_26 
REMARK    3  A    between atoms: C20_26  and  C21_27 
ROOT
ATOM      1  C1   11 d         -16.168 204.848 121.956  0.00  0.00     0.157 A 
ATOM      2  C2   11 d         -15.707 205.558 123.132  0.00  0.00     0.285 A 
ATOM      3  N1   11 d         -16.816 205.849 123.950  0.00  0.00    -0.277 N 
ATOM      4  C3   11 d         -16.751 206.615 125.200  0.00  0.00     0.177 A 
ATOM      5  N2   11 d         -15.628 207.133 125.748  0.00  0.00    -0.228 NA
ATOM      6  C4   11 d         -15.909 207.770 126.917  0.00  0.00     0.046 A 
ATOM      7  C5   11 d         -17.280 207.723 127.189  0.00  0.00     0.006 A 
ATOM      8  S1   11 d         -17.922 206.975 126.065  0.00  0.00    -0.055 SA
ATOM      9  C6   11 d         -18.035 208.391 128.300  0.00  0.00     0.058 C 
ATOM     10  C7   11 d         -14.883 208.560 127.668  0.00  0.00     0.071 C 
ATOM     11  C8   11 d         -18.071 205.264 123.351  0.00  0.00     0.168 A 
ATOM     12  C9   11 d         -17.548 204.705 122.032  0.00  0.00     0.060 A 
ATOM     13  C10  11 d         -18.206 204.106 120.941  0.00  0.00     0.196 A 
ATOM     14  C11  11 d         -17.442 203.676 119.828  0.00  0.00     0.049 A 
ATOM     15  C12  11 d         -16.031 203.871 119.866  0.00  0.00     0.090 A 
ATOM     16  O1   11 d         -15.462 204.443 120.914  0.00  0.00    -0.303 OA
ATOM     17  C13  11 d         -15.237 203.475 118.780  0.00  0.00     0.038 A 
ATOM     18  C14  11 d         -15.828 202.885 117.653  0.00  0.00     0.003 A 
ATOM     19  C15  11 d         -17.216 202.687 117.607  0.00  0.00     0.001 A 
ATOM     20  C16  11 d         -18.022 203.079 118.688  0.00  0.00     0.018 A 
ATOM     21  O2   11 d         -19.457 203.997 120.932  0.00  0.00    -0.287 OA
ATOM     22  C17  11 d         -18.742 204.206 124.232  0.00  0.00    -0.028 A 
ATOM     23  C18  11 d         -20.023 203.712 123.898  0.00  0.00     0.046 A 
ATOM     24  C19  11 d         -20.697 202.808 124.735  0.00  0.00     0.069 A 
ATOM     25  C23  11 d         -20.102 202.389 125.932  0.00  0.00     0.037 A 
ATOM     26  C24  11 d         -18.818 202.833 126.268  0.00  0.00     0.003 A 
ATOM     27  C25  11 d         -18.146 203.733 125.429  0.00  0.00     0.010 A 
ATOM     28  O4   11 d         -14.497 205.907 123.366  0.00  0.00    -0.265 OA
ENDROOT
BRANCH  24  29
ATOM     29  O3   11 d         -22.053 202.480 124.470  0.00  0.00    -0.348 OA
BRANCH  29  30
ATOM     30  C20  11 d         -22.186 201.058 124.238  0.00  0.00     0.202 C 
BRANCH  30  31
ATOM     31  C21  11 d         -21.641 200.773 122.869  0.00  0.00    -0.011 C 
ATOM     32  C22  11 d         -21.145 199.578 122.527  0.00  0.00     0.009 C 
ENDBRANCH  30  31
ENDBRANCH  29  30
ENDBRANCH  24  29
TORSDOF 3
ENDMDL
