MODEL 1
REMARK VINA RESULT:     -10.0      0.000      0.000
REMARK  5 active torsions:
REMARK  status: ('A' for Active; 'I' for Inactive)
REMARK    1  A    between atoms: C5_7  and  C6_8 
REMARK    2  A    between atoms: N5_17  and  C10_18 
REMARK    3  A    between atoms: C10_18  and  C11_19 
REMARK    4  A    between atoms: C11_19  and  C12_20 
REMARK    5  A    between atoms: C17_25  and  O1_26 
ROOT
ATOM      1  C1   11 d         -10.856 208.447 115.651  0.00  0.00     0.261 A 
ATOM      2  C2   11 d         -12.168 208.089 115.287  0.00  0.00     0.080 A 
ATOM      3  C3   11 d         -12.440 207.763 113.934  0.00  0.00     0.095 A 
ATOM      4  N1   11 d         -13.702 207.350 113.615  0.00  0.00    -0.057 N 
ATOM      5  C4   11 d         -14.684 207.281 114.530  0.00  0.00     0.751 A 
ATOM      6  N2   11 d         -15.806 206.844 113.943  0.00  0.00    -0.034 NA
ATOM      7  C5   11 d         -15.456 206.605 112.654  0.00  0.00     0.272 A 
ATOM      8  N3   11 d         -14.161 206.970 112.465  0.00  0.00    -0.126 NA
ATOM      9  N4   11 d         -14.479 207.620 115.828  0.00  0.00    -0.072 NA
ATOM     10  C7   11 d         -13.230 208.019 116.220  0.00  0.00     0.156 A 
ATOM     11  C8   11 d         -11.419 207.857 112.979  0.00  0.00     0.050 A 
ATOM     12  C9   11 d         -10.137 208.252 113.378  0.00  0.00     0.096 A 
ATOM     13  N5   11 d          -9.855 208.516 114.699  0.00  0.00    -0.323 N 
ATOM     14  O2   11 d         -10.595 208.680 116.861  0.00  0.00    -0.267 OA
ENDROOT
BRANCH  13  15
ATOM     15  C10  11 d          -8.461 208.816 115.088  0.00  0.00     0.136 C 
BRANCH  15  16
ATOM     16  C11  11 d          -7.757 209.770 114.110  0.00  0.00     0.061 C 
BRANCH  16  17
ATOM     17  C12  11 d          -6.745 209.068 113.256  0.00  0.00    -0.029 A 
ATOM     18  C13  11 d          -5.425 208.764 113.564  0.00  0.00     0.001 A 
ATOM     19  C14  11 d          -4.862 208.189 112.442  0.00  0.00     0.043 A 
ATOM     20  C19  11 d          -4.685 208.935 114.745  0.00  0.00     0.051 A 
ATOM     21  C15  11 d          -3.528 207.762 112.429  0.00  0.00     0.033 A 
ATOM     22  N6   11 d          -5.786 208.130 111.468  0.00  0.00    -0.365 N 
ATOM     23  C16  11 d          -2.770 207.913 113.606  0.00  0.00     0.039 A 
ATOM     24  C17  11 d          -3.339 208.520 114.754  0.00  0.00     0.069 A 
ATOM     25  C20  11 d          -6.938 208.660 111.939  0.00  0.00     0.096 A 
ATOM     26  H14  11 d          -5.639 207.745 110.499  0.00  0.00     0.165 HD
BRANCH  24  27
ATOM     27  O1   11 d          -2.587 208.582 115.959  0.00  0.00    -0.356 OA
ATOM     28  C18  11 d          -3.470 208.896 117.064  0.00  0.00     0.210 C 
ENDBRANCH  24  27
ENDBRANCH  16  17
ENDBRANCH  15  16
ENDBRANCH  13  15
BRANCH   7  29
ATOM     29  C6   11 d         -16.412 206.242 111.555  0.00  0.00     0.455 C 
ATOM     30  F1   11 d         -17.405 207.209 111.431  0.00  0.00    -0.163 F 
ATOM     31  F2   11 d         -17.016 205.014 111.816  0.00  0.00    -0.163 F 
ATOM     32  F3   11 d         -15.719 206.156 110.351  0.00  0.00    -0.163 F 
ENDBRANCH   7  29
TORSDOF 5
ENDMDL
MODEL 2
REMARK VINA RESULT:      -9.9      5.563     10.174
REMARK  5 active torsions:
REMARK  status: ('A' for Active; 'I' for Inactive)
REMARK    1  A    between atoms: C5_7  and  C6_8 
REMARK    2  A    between atoms: N5_17  and  C10_18 
REMARK    3  A    between atoms: C10_18  and  C11_19 
REMARK    4  A    between atoms: C11_19  and  C12_20 
REMARK    5  A    between atoms: C17_25  and  O1_26 
ROOT
ATOM      1  C1   11 d          -7.993 208.641 114.186  0.00  0.00     0.261 A 
ATOM      2  C2   11 d          -6.586 208.638 114.248  0.00  0.00     0.080 A 
ATOM      3  C3   11 d          -5.847 208.505 113.044  0.00  0.00     0.095 A 
ATOM      4  N1   11 d          -4.485 208.574 113.119  0.00  0.00    -0.057 N 
ATOM      5  C4   11 d          -3.840 208.727 114.287  0.00  0.00     0.751 A 
ATOM      6  N2   11 d          -2.520 208.767 114.062  0.00  0.00    -0.034 NA
ATOM      7  C5   11 d          -2.392 208.682 112.714  0.00  0.00     0.272 A 
ATOM      8  N3   11 d          -3.620 208.516 112.156  0.00  0.00    -0.126 NA
ATOM      9  N4   11 d          -4.504 208.821 115.467  0.00  0.00    -0.072 NA
ATOM     10  C7   11 d          -5.872 208.783 115.461  0.00  0.00     0.156 A 
ATOM     11  C8   11 d          -6.523 208.323 111.831  0.00  0.00     0.050 A 
ATOM     12  C9   11 d          -7.922 208.297 111.820  0.00  0.00     0.096 A 
ATOM     13  N5   11 d          -8.645 208.481 112.977  0.00  0.00    -0.323 N 
ATOM     14  O2   11 d          -8.655 208.819 115.242  0.00  0.00    -0.267 OA
ENDROOT
BRANCH  13  15
ATOM     15  C10  11 d         -10.118 208.561 112.895  0.00  0.00     0.136 C 
BRANCH  15  16
ATOM     16  C11  11 d         -10.779 207.205 112.600  0.00  0.00     0.061 C 
BRANCH  16  17
ATOM     17  C12  11 d         -11.718 207.269 111.434  0.00  0.00    -0.029 A 
ATOM     18  C13  11 d         -13.091 207.055 111.426  0.00  0.00     0.001 A 
ATOM     19  C14  11 d         -13.514 207.142 110.114  0.00  0.00     0.043 A 
ATOM     20  C19  11 d         -13.998 206.806 112.469  0.00  0.00     0.051 A 
ATOM     21  C15  11 d         -14.861 206.976 109.766  0.00  0.00     0.033 A 
ATOM     22  N6   11 d         -12.455 207.402 109.328  0.00  0.00    -0.365 N 
ATOM     23  C16  11 d         -15.789 206.736 110.797  0.00  0.00     0.039 A 
ATOM     24  C17  11 d         -15.357 206.628 112.143  0.00  0.00     0.069 A 
ATOM     25  C20  11 d         -11.353 207.482 110.107  0.00  0.00     0.096 A 
ATOM     26  H14  11 d         -12.475 207.516 108.282  0.00  0.00     0.165 HD
BRANCH  24  27
ATOM     27  O1   11 d         -16.319 206.476 113.178  0.00  0.00    -0.356 OA
ATOM     28  C18  11 d         -15.661 206.020 114.386  0.00  0.00     0.210 C 
ENDBRANCH  24  27
ENDBRANCH  16  17
ENDBRANCH  15  16
ENDBRANCH  13  15
BRANCH   7  29
ATOM     29  C6   11 d          -1.092 208.535 111.979  0.00  0.00     0.455 C 
ATOM     30  F1   11 d          -1.298 208.594 110.603  0.00  0.00    -0.163 F 
ATOM     31  F2   11 d          -0.489 207.318 112.287  0.00  0.00    -0.163 F 
ATOM     32  F3   11 d          -0.235 209.568 112.346  0.00  0.00    -0.163 F 
ENDBRANCH   7  29
TORSDOF 5
ENDMDL
MODEL 3
REMARK VINA RESULT:      -9.7      1.827      2.594
REMARK  5 active torsions:
REMARK  status: ('A' for Active; 'I' for Inactive)
REMARK    1  A    between atoms: C5_7  and  C6_8 
REMARK    2  A    between atoms: N5_17  and  C10_18 
REMARK    3  A    between atoms: C10_18  and  C11_19 
REMARK    4  A    between atoms: C11_19  and  C12_20 
REMARK    5  A    between atoms: C17_25  and  O1_26 
ROOT
ATOM      1  C1   11 d          -9.632 208.732 114.222  0.00  0.00     0.261 A 
ATOM      2  C2   11 d         -10.901 208.125 114.178  0.00  0.00     0.080 A 
ATOM      3  C3   11 d         -11.399 207.665 112.932  0.00  0.00     0.095 A 
ATOM      4  N1   11 d         -12.602 207.017 112.922  0.00  0.00    -0.057 N 
ATOM      5  C4   11 d         -13.327 206.839 114.040  0.00  0.00     0.751 A 
ATOM      6  N2   11 d         -14.449 206.173 113.738  0.00  0.00    -0.034 NA
ATOM      7  C5   11 d         -14.355 205.912 112.409  0.00  0.00     0.272 A 
ATOM      8  N3   11 d         -13.224 206.485 111.918  0.00  0.00    -0.126 NA
ATOM      9  N4   11 d         -12.907 207.295 115.247  0.00  0.00    -0.072 NA
ATOM     10  C7   11 d         -11.699 207.933 115.331  0.00  0.00     0.156 A 
ATOM     11  C8   11 d         -10.650 207.871 111.766  0.00  0.00     0.050 A 
ATOM     12  C9   11 d          -9.409 208.511 111.850  0.00  0.00     0.096 A 
ATOM     13  N5   11 d          -8.896 208.910 113.064  0.00  0.00    -0.323 N 
ATOM     14  O2   11 d          -9.158 209.088 115.333  0.00  0.00    -0.267 OA
ENDROOT
BRANCH  13  15
ATOM     15  C10  11 d          -7.532 209.476 113.114  0.00  0.00     0.136 C 
BRANCH  15  16
ATOM     16  C11  11 d          -6.477 208.561 112.471  0.00  0.00     0.061 C 
BRANCH  16  17
ATOM     17  C12  11 d          -5.366 208.219 113.416  0.00  0.00    -0.029 A 
ATOM     18  C13  11 d          -4.003 208.164 113.154  0.00  0.00     0.001 A 
ATOM     19  C14  11 d          -3.378 207.727 114.305  0.00  0.00     0.043 A 
ATOM     20  C19  11 d          -3.267 208.478 112.000  0.00  0.00     0.051 A 
ATOM     21  C15  11 d          -1.988 207.568 114.369  0.00  0.00     0.033 A 
ATOM     22  N6   11 d          -4.305 207.517 115.255  0.00  0.00    -0.365 N 
ATOM     23  C16  11 d          -1.229 207.888 113.227  0.00  0.00     0.039 A 
ATOM     24  C17  11 d          -1.867 208.320 112.038  0.00  0.00     0.069 A 
ATOM     25  C20  11 d          -5.521 207.807 114.738  0.00  0.00     0.096 A 
ATOM     26  H14  11 d          -4.122 207.176 116.234  0.00  0.00     0.165 HD
BRANCH  24  27
ATOM     27  O1   11 d          -1.079 208.724 110.926  0.00  0.00    -0.356 OA
ATOM     28  C18  11 d          -1.947 209.153 109.849  0.00  0.00     0.210 C 
ENDBRANCH  24  27
ENDBRANCH  16  17
ENDBRANCH  15  16
ENDBRANCH  13  15
BRANCH   7  29
ATOM     29  C6   11 d         -15.444 205.313 111.569  0.00  0.00     0.455 C 
ATOM     30  F1   11 d         -16.658 205.339 112.251  0.00  0.00    -0.163 F 
ATOM     31  F2   11 d         -15.144 203.993 111.244  0.00  0.00    -0.163 F 
ATOM     32  F3   11 d         -15.576 206.047 110.394  0.00  0.00    -0.163 F 
ENDBRANCH   7  29
TORSDOF 5
ENDMDL
MODEL 4
REMARK VINA RESULT:      -9.7      5.491      9.979
REMARK  5 active torsions:
REMARK  status: ('A' for Active; 'I' for Inactive)
REMARK    1  A    between atoms: C5_7  and  C6_8 
REMARK    2  A    between atoms: N5_17  and  C10_18 
REMARK    3  A    between atoms: C10_18  and  C11_19 
REMARK    4  A    between atoms: C11_19  and  C12_20 
REMARK    5  A    between atoms: C17_25  and  O1_26 
ROOT
ATOM      1  C1   11 d          -7.321 208.591 112.418  0.00  0.00     0.261 A 
ATOM      2  C2   11 d          -6.322 208.816 113.384  0.00  0.00     0.080 A 
ATOM      3  C3   11 d          -6.702 209.289 114.666  0.00  0.00     0.095 A 
ATOM      4  N1   11 d          -5.725 209.435 115.610  0.00  0.00    -0.057 N 
ATOM      5  C4   11 d          -4.433 209.179 115.346  0.00  0.00     0.751 A 
ATOM      6  N2   11 d          -3.704 209.401 116.449  0.00  0.00    -0.034 NA
ATOM      7  C5   11 d          -4.606 209.752 117.400  0.00  0.00     0.272 A 
ATOM      8  N3   11 d          -5.845 209.811 116.844  0.00  0.00    -0.126 NA
ATOM      9  N4   11 d          -4.019 208.761 114.123  0.00  0.00    -0.072 NA
ATOM     10  C7   11 d          -4.950 208.571 113.138  0.00  0.00     0.156 A 
ATOM     11  C8   11 d          -8.048 209.575 114.930  0.00  0.00     0.050 A 
ATOM     12  C9   11 d          -9.004 209.370 113.930  0.00  0.00     0.096 A 
ATOM     13  N5   11 d          -8.648 208.859 112.701  0.00  0.00    -0.323 N 
ATOM     14  O2   11 d          -6.998 208.114 111.298  0.00  0.00    -0.267 OA
ENDROOT
BRANCH  13  15
ATOM     15  C10  11 d          -9.709 208.552 111.719  0.00  0.00     0.136 C 
BRANCH  15  16
ATOM     16  C11  11 d         -10.698 207.486 112.216  0.00  0.00     0.061 C 
BRANCH  16  17
ATOM     17  C12  11 d         -11.875 207.329 111.301  0.00  0.00    -0.029 A 
ATOM     18  C13  11 d         -13.165 206.927 111.624  0.00  0.00     0.001 A 
ATOM     19  C14  11 d         -13.881 206.852 110.446  0.00  0.00     0.043 A 
ATOM     20  C19  11 d         -13.764 206.636 112.860  0.00  0.00     0.051 A 
ATOM     21  C15  11 d         -15.230 206.474 110.430  0.00  0.00     0.033 A 
ATOM     22  N6   11 d         -13.079 207.194 109.422  0.00  0.00    -0.365 N 
ATOM     23  C16  11 d         -15.854 206.189 111.660  0.00  0.00     0.039 A 
ATOM     24  C17  11 d         -15.118 206.247 112.870  0.00  0.00     0.069 A 
ATOM     25  C20  11 d         -11.855 207.487 109.917  0.00  0.00     0.096 A 
ATOM     26  H14  11 d         -13.352 207.223 108.406  0.00  0.00     0.165 HD
BRANCH  24  27
ATOM     27  O1   11 d         -15.787 206.044 114.108  0.00  0.00    -0.356 OA
ATOM     28  C18  11 d         -14.828 205.635 115.114  0.00  0.00     0.210 C 
ENDBRANCH  24  27
ENDBRANCH  16  17
ENDBRANCH  15  16
ENDBRANCH  13  15
BRANCH   7  29
ATOM     29  C6   11 d          -4.261 210.245 118.774  0.00  0.00     0.455 C 
ATOM     30  F1   11 d          -4.434 209.234 119.715  0.00  0.00    -0.163 F 
ATOM     31  F2   11 d          -5.070 211.323 119.126  0.00  0.00    -0.163 F 
ATOM     32  F3   11 d          -2.931 210.654 118.797  0.00  0.00    -0.163 F 
ENDBRANCH   7  29
TORSDOF 5
ENDMDL
MODEL 5
REMARK VINA RESULT:      -9.6      5.815     10.502
REMARK  5 active torsions:
REMARK  status: ('A' for Active; 'I' for Inactive)
REMARK    1  A    between atoms: C5_7  and  C6_8 
REMARK    2  A    between atoms: N5_17  and  C10_18 
REMARK    3  A    between atoms: C10_18  and  C11_19 
REMARK    4  A    between atoms: C11_19  and  C12_20 
REMARK    5  A    between atoms: C17_25  and  O1_26 
ROOT
ATOM      1  C1   11 d         -13.506 206.631 118.172  0.00  0.00     0.261 A 
ATOM      2  C2   11 d         -13.554 206.860 116.783  0.00  0.00     0.080 A 
ATOM      3  C3   11 d         -14.126 205.870 115.944  0.00  0.00     0.095 A 
ATOM      4  N1   11 d         -14.226 206.142 114.609  0.00  0.00    -0.057 N 
ATOM      5  C4   11 d         -13.773 207.290 114.078  0.00  0.00     0.751 A 
ATOM      6  N2   11 d         -14.005 207.289 112.758  0.00  0.00    -0.034 NA
ATOM      7  C5   11 d         -14.659 206.124 112.519  0.00  0.00     0.272 A 
ATOM      8  N3   11 d         -14.742 205.410 113.673  0.00  0.00    -0.126 NA
ATOM      9  N4   11 d         -13.185 208.249 114.837  0.00  0.00    -0.072 NA
ATOM     10  C7   11 d         -13.074 208.050 116.186  0.00  0.00     0.156 A 
ATOM     11  C8   11 d         -14.578 204.666 116.499  0.00  0.00     0.050 A 
ATOM     12  C9   11 d         -14.478 204.464 117.880  0.00  0.00     0.096 A 
ATOM     13  N5   11 d         -13.975 205.444 118.706  0.00  0.00    -0.323 N 
ATOM     14  O2   11 d         -13.055 207.530 118.929  0.00  0.00    -0.267 OA
ENDROOT
BRANCH  13  15
ATOM     15  C10  11 d         -13.997 205.230 120.168  0.00  0.00     0.136 C 
BRANCH  15  16
ATOM     16  C11  11 d         -15.076 204.229 120.613  0.00  0.00     0.061 C 
BRANCH  16  17
ATOM     17  C12  11 d         -16.336 204.908 121.058  0.00  0.00    -0.029 A 
ATOM     18  C13  11 d         -17.637 204.666 120.633  0.00  0.00     0.001 A 
ATOM     19  C14  11 d         -18.453 205.587 121.260  0.00  0.00     0.043 A 
ATOM     20  C19  11 d         -18.163 203.701 119.759  0.00  0.00     0.051 A 
ATOM     21  C15  11 d         -19.837 205.606 121.043  0.00  0.00     0.033 A 
ATOM     22  N6   11 d         -17.702 206.375 122.048  0.00  0.00    -0.365 N 
ATOM     23  C16  11 d         -20.388 204.641 120.179  0.00  0.00     0.039 A 
ATOM     24  C17  11 d         -19.551 203.705 119.520  0.00  0.00     0.069 A 
ATOM     25  C20  11 d         -16.412 205.983 121.940  0.00  0.00     0.096 A 
ATOM     26  H14  11 d         -18.052 207.170 122.642  0.00  0.00     0.165 HD
BRANCH  24  27
ATOM     27  O1   11 d         -20.135 202.683 118.724  0.00  0.00    -0.356 OA
ATOM     28  C18  11 d         -19.659 202.801 117.361  0.00  0.00     0.210 C 
ENDBRANCH  24  27
ENDBRANCH  16  17
ENDBRANCH  15  16
ENDBRANCH  13  15
BRANCH   7  29
ATOM     29  C6   11 d         -15.003 205.593 111.158  0.00  0.00     0.455 C 
ATOM     30  F1   11 d         -14.223 206.206 110.182  0.00  0.00    -0.163 F 
ATOM     31  F2   11 d         -16.344 205.824 110.866  0.00  0.00    -0.163 F 
ATOM     32  F3   11 d         -14.764 204.222 111.125  0.00  0.00    -0.163 F 
ENDBRANCH   7  29
TORSDOF 5
ENDMDL
MODEL 6
REMARK VINA RESULT:      -9.4      2.367      3.424
REMARK  5 active torsions:
REMARK  status: ('A' for Active; 'I' for Inactive)
REMARK    1  A    between atoms: C5_7  and  C6_8 
REMARK    2  A    between atoms: N5_17  and  C10_18 
REMARK    3  A    between atoms: C10_18  and  C11_19 
REMARK    4  A    between atoms: C11_19  and  C12_20 
REMARK    5  A    between atoms: C17_25  and  O1_26 
ROOT
ATOM      1  C1   11 d         -11.998 207.111 117.227  0.00  0.00     0.261 A 
ATOM      2  C2   11 d         -12.955 206.752 116.259  0.00  0.00     0.080 A 
ATOM      3  C3   11 d         -12.884 207.343 114.971  0.00  0.00     0.095 A 
ATOM      4  N1   11 d         -13.779 206.929 114.026  0.00  0.00    -0.057 N 
ATOM      5  C4   11 d         -14.730 206.018 114.293  0.00  0.00     0.751 A 
ATOM      6  N2   11 d         -15.457 205.801 113.189  0.00  0.00    -0.034 NA
ATOM      7  C5   11 d         -14.882 206.574 112.234  0.00  0.00     0.272 A 
ATOM      8  N3   11 d         -13.874 207.298 112.788  0.00  0.00    -0.126 NA
ATOM      9  N4   11 d         -14.859 205.455 115.521  0.00  0.00    -0.072 NA
ATOM     10  C7   11 d         -13.979 205.807 116.508  0.00  0.00     0.156 A 
ATOM     11  C8   11 d         -11.904 208.308 114.704  0.00  0.00     0.050 A 
ATOM     12  C9   11 d         -10.994 208.661 115.706  0.00  0.00     0.096 A 
ATOM     13  N5   11 d         -11.024 208.051 116.940  0.00  0.00    -0.323 N 
ATOM     14  O2   11 d         -12.018 206.546 118.352  0.00  0.00    -0.267 OA
ENDROOT
BRANCH  13  15
ATOM     15  C10  11 d          -9.971 208.374 117.925  0.00  0.00     0.136 C 
BRANCH  15  16
ATOM     16  C11  11 d          -8.706 207.520 117.755  0.00  0.00     0.061 C 
BRANCH  16  17
ATOM     17  C12  11 d          -7.487 208.351 117.489  0.00  0.00    -0.029 A 
ATOM     18  C13  11 d          -7.012 208.810 116.266  0.00  0.00     0.001 A 
ATOM     19  C14  11 d          -5.820 209.464 116.506  0.00  0.00     0.043 A 
ATOM     20  C19  11 d          -7.543 208.715 114.970  0.00  0.00     0.051 A 
ATOM     21  C15  11 d          -5.084 210.050 115.468  0.00  0.00     0.033 A 
ATOM     22  N6   11 d          -5.553 209.422 117.823  0.00  0.00    -0.365 N 
ATOM     23  C16  11 d          -5.603 209.977 114.162  0.00  0.00     0.039 A 
ATOM     24  C17  11 d          -6.818 209.291 113.908  0.00  0.00     0.069 A 
ATOM     25  C20  11 d          -6.551 208.750 118.440  0.00  0.00     0.096 A 
ATOM     26  H14  11 d          -4.708 209.834 118.296  0.00  0.00     0.165 HD
BRANCH  24  27
ATOM     27  O1   11 d          -7.371 209.306 112.599  0.00  0.00    -0.356 OA
ATOM     28  C18  11 d          -8.777 209.648 112.672  0.00  0.00     0.210 C 
ENDBRANCH  24  27
ENDBRANCH  16  17
ENDBRANCH  15  16
ENDBRANCH  13  15
BRANCH   7  29
ATOM     29  C6   11 d         -15.431 206.791 110.854  0.00  0.00     0.455 C 
ATOM     30  F1   11 d         -16.787 206.479 110.813  0.00  0.00    -0.163 F 
ATOM     31  F2   11 d         -14.763 205.992 109.929  0.00  0.00    -0.163 F 
ATOM     32  F3   11 d         -15.269 208.126 110.497  0.00  0.00    -0.163 F 
ENDBRANCH   7  29
TORSDOF 5
ENDMDL
MODEL 7
REMARK VINA RESULT:      -9.1      5.949     10.389
REMARK  5 active torsions:
REMARK  status: ('A' for Active; 'I' for Inactive)
REMARK    1  A    between atoms: C5_7  and  C6_8 
REMARK    2  A    between atoms: N5_17  and  C10_18 
REMARK    3  A    between atoms: C10_18  and  C11_19 
REMARK    4  A    between atoms: C11_19  and  C12_20 
REMARK    5  A    between atoms: C17_25  and  O1_26 
ROOT
ATOM      1  C1   11 d         -13.746 206.708 118.159  0.00  0.00     0.261 A 
ATOM      2  C2   11 d         -13.729 206.952 116.773  0.00  0.00     0.080 A 
ATOM      3  C3   11 d         -14.186 205.937 115.893  0.00  0.00     0.095 A 
ATOM      4  N1   11 d         -14.227 206.219 114.557  0.00  0.00    -0.057 N 
ATOM      5  C4   11 d         -13.820 207.401 114.063  0.00  0.00     0.751 A 
ATOM      6  N2   11 d         -13.976 207.401 112.733  0.00  0.00    -0.034 NA
ATOM      7  C5   11 d         -14.537 206.199 112.445  0.00  0.00     0.272 A 
ATOM      8  N3   11 d         -14.639 205.467 113.586  0.00  0.00    -0.126 NA
ATOM      9  N4   11 d         -13.341 208.386 114.864  0.00  0.00    -0.072 NA
ATOM     10  C7   11 d         -13.295 208.178 116.215  0.00  0.00     0.156 A 
ATOM     11  C8   11 d         -14.588 204.699 116.410  0.00  0.00     0.050 A 
ATOM     12  C9   11 d         -14.555 204.487 117.792  0.00  0.00     0.096 A 
ATOM     13  N5   11 d         -14.166 205.487 118.655  0.00  0.00    -0.323 N 
ATOM     14  O2   11 d         -13.399 207.625 118.950  0.00  0.00    -0.267 OA
ENDROOT
BRANCH  13  15
ATOM     15  C10  11 d         -14.258 205.253 120.111  0.00  0.00     0.136 C 
BRANCH  15  16
ATOM     16  C11  11 d         -14.963 203.934 120.465  0.00  0.00     0.061 C 
BRANCH  16  17
ATOM     17  C12  11 d         -16.442 204.104 120.633  0.00  0.00    -0.029 A 
ATOM     18  C13  11 d         -17.119 204.767 121.649  0.00  0.00     0.001 A 
ATOM     19  C14  11 d         -18.471 204.592 121.427  0.00  0.00     0.043 A 
ATOM     20  C19  11 d         -16.652 205.519 122.739  0.00  0.00     0.051 A 
ATOM     21  C15  11 d         -19.432 205.146 122.282  0.00  0.00     0.033 A 
ATOM     22  N6   11 d         -18.641 203.853 120.317  0.00  0.00    -0.365 N 
ATOM     23  C16  11 d         -18.986 205.914 123.375  0.00  0.00     0.039 A 
ATOM     24  C17  11 d         -17.599 206.081 123.617  0.00  0.00     0.069 A 
ATOM     25  C20  11 d         -17.423 203.544 119.818  0.00  0.00     0.096 A 
ATOM     26  H14  11 d         -19.564 203.556 119.907  0.00  0.00     0.165 HD
BRANCH  24  27
ATOM     27  O1   11 d         -17.170 206.933 124.671  0.00  0.00    -0.356 OA
ATOM     28  C18  11 d         -17.892 206.603 125.883  0.00  0.00     0.210 C 
ENDBRANCH  24  27
ENDBRANCH  16  17
ENDBRANCH  15  16
ENDBRANCH  13  15
BRANCH   7  29
ATOM     29  C6   11 d         -14.766 205.664 111.062  0.00  0.00     0.455 C 
ATOM     30  F1   11 d         -16.080 205.892 110.662  0.00  0.00    -0.163 F 
ATOM     31  F2   11 d         -14.519 204.294 111.018  0.00  0.00    -0.163 F 
ATOM     32  F3   11 d         -13.911 206.305 110.172  0.00  0.00    -0.163 F 
ENDBRANCH   7  29
TORSDOF 5
ENDMDL
MODEL 8
REMARK VINA RESULT:      -8.9      6.630      9.383
REMARK  5 active torsions:
REMARK  status: ('A' for Active; 'I' for Inactive)
REMARK    1  A    between atoms: C5_7  and  C6_8 
REMARK    2  A    between atoms: N5_17  and  C10_18 
REMARK    3  A    between atoms: C10_18  and  C11_19 
REMARK    4  A    between atoms: C11_19  and  C12_20 
REMARK    5  A    between atoms: C17_25  and  O1_26 
ROOT
ATOM      1  C1   11 d         -14.900 203.917 118.437  0.00  0.00     0.261 A 
ATOM      2  C2   11 d         -15.775 203.908 119.539  0.00  0.00     0.080 A 
ATOM      3  C3   11 d         -15.763 205.009 120.434  0.00  0.00     0.095 A 
ATOM      4  N1   11 d         -16.668 205.012 121.457  0.00  0.00    -0.057 N 
ATOM      5  C4   11 d         -17.531 204.000 121.651  0.00  0.00     0.751 A 
ATOM      6  N2   11 d         -18.298 204.271 122.716  0.00  0.00    -0.034 NA
ATOM      7  C5   11 d         -17.903 205.503 123.128  0.00  0.00     0.272 A 
ATOM      8  N3   11 d         -16.861 205.920 122.361  0.00  0.00    -0.126 NA
ATOM      9  N4   11 d         -17.553 202.911 120.843  0.00  0.00    -0.072 NA
ATOM     10  C7   11 d         -16.688 202.854 119.784  0.00  0.00     0.156 A 
ATOM     11  C8   11 d         -14.847 206.051 120.240  0.00  0.00     0.050 A 
ATOM     12  C9   11 d         -13.970 206.003 119.152  0.00  0.00     0.096 A 
ATOM     13  N5   11 d         -14.016 204.964 118.248  0.00  0.00    -0.323 N 
ATOM     14  O2   11 d         -14.947 202.973 117.605  0.00  0.00    -0.267 OA
ENDROOT
BRANCH  13  15
ATOM     15  C10  11 d         -13.149 205.017 117.052  0.00  0.00     0.136 C 
BRANCH  15  16
ATOM     16  C11  11 d         -13.757 205.838 115.904  0.00  0.00     0.061 C 
BRANCH  16  17
ATOM     17  C12  11 d         -12.711 206.422 115.004  0.00  0.00    -0.029 A 
ATOM     18  C13  11 d         -12.715 206.490 113.616  0.00  0.00     0.001 A 
ATOM     19  C14  11 d         -11.509 207.038 113.226  0.00  0.00     0.043 A 
ATOM     20  C19  11 d         -13.689 206.127 112.672  0.00  0.00     0.051 A 
ATOM     21  C15  11 d         -11.201 207.245 111.876  0.00  0.00     0.033 A 
ATOM     22  N6   11 d         -10.775 207.307 114.320  0.00  0.00    -0.365 N 
ATOM     23  C16  11 d         -12.167 206.899 110.912  0.00  0.00     0.039 A 
ATOM     24  C17  11 d         -13.399 206.319 111.306  0.00  0.00     0.069 A 
ATOM     25  C20  11 d         -11.485 206.940 115.411  0.00  0.00     0.096 A 
ATOM     26  H14  11 d          -9.810 207.725 114.329  0.00  0.00     0.165 HD
BRANCH  24  27
ATOM     27  O1   11 d         -14.397 206.060 110.328  0.00  0.00    -0.356 OA
ATOM     28  C18  11 d         -15.633 206.710 110.713  0.00  0.00     0.210 C 
ENDBRANCH  24  27
ENDBRANCH  16  17
ENDBRANCH  15  16
ENDBRANCH  13  15
BRANCH   7  29
ATOM     29  C6   11 d         -18.365 206.181 124.384  0.00  0.00     0.455 C 
ATOM     30  F1   11 d         -17.486 205.923 125.431  0.00  0.00    -0.163 F 
ATOM     31  F2   11 d         -19.633 205.731 124.747  0.00  0.00    -0.163 F 
ATOM     32  F3   11 d         -18.418 207.555 124.173  0.00  0.00    -0.163 F 
ENDBRANCH   7  29
TORSDOF 5
ENDMDL
MODEL 9
REMARK VINA RESULT:      -8.8      5.123     10.298
REMARK  5 active torsions:
REMARK  status: ('A' for Active; 'I' for Inactive)
REMARK    1  A    between atoms: C5_7  and  C6_8 
REMARK    2  A    between atoms: N5_17  and  C10_18 
REMARK    3  A    between atoms: C10_18  and  C11_19 
REMARK    4  A    between atoms: C11_19  and  C12_20 
REMARK    5  A    between atoms: C17_25  and  O1_26 
ROOT
ATOM      1  C1   11 d          -7.178 208.770 114.767  0.00  0.00     0.261 A 
ATOM      2  C2   11 d          -5.837 208.751 114.338  0.00  0.00     0.080 A 
ATOM      3  C3   11 d          -5.563 208.613 112.953  0.00  0.00     0.095 A 
ATOM      4  N1   11 d          -4.258 208.666 112.550  0.00  0.00    -0.057 N 
ATOM      5  C4   11 d          -3.247 208.809 113.423  0.00  0.00     0.751 A 
ATOM      6  N2   11 d          -2.086 208.835 112.754  0.00  0.00    -0.034 NA
ATOM      7  C5   11 d          -2.435 208.752 111.445  0.00  0.00     0.272 A 
ATOM      8  N3   11 d          -3.782 208.601 111.347  0.00  0.00    -0.126 NA
ATOM      9  N4   11 d          -3.460 208.907 114.759  0.00  0.00    -0.072 NA
ATOM     10  C7   11 d          -4.746 208.885 115.228  0.00  0.00     0.156 A 
ATOM     11  C8   11 d          -6.620 208.442 112.049  0.00  0.00     0.050 A 
ATOM     12  C9   11 d          -7.935 208.432 112.523  0.00  0.00     0.096 A 
ATOM     13  N5   11 d          -8.211 208.621 113.859  0.00  0.00    -0.323 N 
ATOM     14  O2   11 d          -7.431 208.953 115.987  0.00  0.00    -0.267 OA
ENDROOT
BRANCH  13  15
ATOM     15  C10  11 d          -9.620 208.718 114.293  0.00  0.00     0.136 C 
BRANCH  15  16
ATOM     16  C11  11 d         -10.587 207.957 113.372  0.00  0.00     0.061 C 
BRANCH  16  17
ATOM     17  C12  11 d         -11.606 207.170 114.139  0.00  0.00    -0.029 A 
ATOM     18  C13  11 d         -12.931 206.923 113.800  0.00  0.00     0.001 A 
ATOM     19  C14  11 d         -13.500 206.223 114.846  0.00  0.00     0.043 A 
ATOM     20  C19  11 d         -13.671 207.246 112.652  0.00  0.00     0.051 A 
ATOM     21  C15  11 d         -14.839 205.815 114.812  0.00  0.00     0.033 A 
ATOM     22  N6   11 d         -12.575 206.034 115.803  0.00  0.00    -0.365 N 
ATOM     23  C16  11 d         -15.597 206.119 113.665  0.00  0.00     0.039 A 
ATOM     24  C17  11 d         -15.023 206.852 112.597  0.00  0.00     0.069 A 
ATOM     25  C20  11 d         -11.417 206.602 115.396  0.00  0.00     0.096 A 
ATOM     26  H14  11 d         -12.724 205.537 116.718  0.00  0.00     0.165 HD
BRANCH  24  27
ATOM     27  O1   11 d         -15.776 207.070 111.411  0.00  0.00    -0.356 OA
ATOM     28  C18  11 d         -17.070 206.432 111.537  0.00  0.00     0.210 C 
ENDBRANCH  24  27
ENDBRANCH  16  17
ENDBRANCH  15  16
ENDBRANCH  13  15
BRANCH   7  29
ATOM     29  C6   11 d          -1.472 208.592 110.305  0.00  0.00     0.455 C 
ATOM     30  F1   11 d          -2.072 207.912 109.250  0.00  0.00    -0.163 F 
ATOM     31  F2   11 d          -0.345 207.880 110.711  0.00  0.00    -0.163 F 
ATOM     32  F3   11 d          -1.073 209.848 109.858  0.00  0.00    -0.163 F 
ENDBRANCH   7  29
TORSDOF 5
ENDMDL
MODEL 10
REMARK VINA RESULT:      -8.6      5.663     10.208
REMARK  5 active torsions:
REMARK  status: ('A' for Active; 'I' for Inactive)
REMARK    1  A    between atoms: C5_7  and  C6_8 
REMARK    2  A    between atoms: N5_17  and  C10_18 
REMARK    3  A    between atoms: C10_18  and  C11_19 
REMARK    4  A    between atoms: C11_19  and  C12_20 
REMARK    5  A    between atoms: C17_25  and  O1_26 
ROOT
ATOM      1  C1   11 d         -12.970 206.838 117.935  0.00  0.00     0.261 A 
ATOM      2  C2   11 d         -13.008 206.957 116.532  0.00  0.00     0.080 A 
ATOM      3  C3   11 d         -13.765 206.019 115.784  0.00  0.00     0.095 A 
ATOM      4  N1   11 d         -13.845 206.194 114.432  0.00  0.00    -0.057 N 
ATOM      5  C4   11 d         -13.208 207.196 113.802  0.00  0.00     0.751 A 
ATOM      6  N2   11 d         -13.466 207.128 112.489  0.00  0.00    -0.034 NA
ATOM      7  C5   11 d         -14.320 206.082 112.354  0.00  0.00     0.272 A 
ATOM      8  N3   11 d         -14.502 205.491 113.564  0.00  0.00    -0.126 NA
ATOM      9  N4   11 d         -12.443 208.094 114.473  0.00  0.00    -0.072 NA
ATOM     10  C7   11 d         -12.339 207.990 115.833  0.00  0.00     0.156 A 
ATOM     11  C8   11 d         -14.410 204.964 116.443  0.00  0.00     0.050 A 
ATOM     12  C9   11 d         -14.317 204.863 117.835  0.00  0.00     0.096 A 
ATOM     13  N5   11 d         -13.630 205.802 118.571  0.00  0.00    -0.323 N 
ATOM     14  O2   11 d         -12.351 207.701 118.610  0.00  0.00    -0.267 OA
ENDROOT
BRANCH  13  15
ATOM     15  C10  11 d         -13.658 205.715 120.046  0.00  0.00     0.136 C 
BRANCH  15  16
ATOM     16  C11  11 d         -14.733 204.751 120.572  0.00  0.00     0.061 C 
BRANCH  16  17
ATOM     17  C12  11 d         -15.839 205.465 121.288  0.00  0.00    -0.029 A 
ATOM     18  C13  11 d         -16.389 205.168 122.529  0.00  0.00     0.001 A 
ATOM     19  C14  11 d         -17.433 206.048 122.739  0.00  0.00     0.043 A 
ATOM     20  C19  11 d         -16.044 204.206 123.492  0.00  0.00     0.051 A 
ATOM     21  C15  11 d         -18.197 206.012 123.912  0.00  0.00     0.033 A 
ATOM     22  N6   11 d         -17.537 206.867 121.678  0.00  0.00    -0.365 N 
ATOM     23  C16  11 d         -17.861 205.062 124.896  0.00  0.00     0.039 A 
ATOM     24  C17  11 d         -16.802 204.145 124.677  0.00  0.00     0.069 A 
ATOM     25  C20  11 d         -16.580 206.531 120.784  0.00  0.00     0.096 A 
ATOM     26  H14  11 d         -18.246 207.635 121.557  0.00  0.00     0.165 HD
BRANCH  24  27
ATOM     27  O1   11 d         -16.421 203.254 125.717  0.00  0.00    -0.356 OA
ATOM     28  C18  11 d         -14.980 203.100 125.717  0.00  0.00     0.210 C 
ENDBRANCH  24  27
ENDBRANCH  16  17
ENDBRANCH  15  16
ENDBRANCH  13  15
BRANCH   7  29
ATOM     29  C6   11 d         -14.782 205.511 111.046  0.00  0.00     0.455 C 
ATOM     30  F1   11 d         -14.188 206.182 109.981  0.00  0.00    -0.163 F 
ATOM     31  F2   11 d         -16.166 205.619 110.924  0.00  0.00    -0.163 F 
ATOM     32  F3   11 d         -14.429 204.166 110.979  0.00  0.00    -0.163 F 
ENDBRANCH   7  29
TORSDOF 5
ENDMDL
MODEL 11
REMARK VINA RESULT:      -8.5      6.530     11.518
REMARK  5 active torsions:
REMARK  status: ('A' for Active; 'I' for Inactive)
REMARK    1  A    between atoms: C5_7  and  C6_8 
REMARK    2  A    between atoms: N5_17  and  C10_18 
REMARK    3  A    between atoms: C10_18  and  C11_19 
REMARK    4  A    between atoms: C11_19  and  C12_20 
REMARK    5  A    between atoms: C17_25  and  O1_26 
ROOT
ATOM      1  C1   11 d         -13.983 205.710 118.789  0.00  0.00     0.261 A 
ATOM      2  C2   11 d         -13.617 206.234 117.535  0.00  0.00     0.080 A 
ATOM      3  C3   11 d         -13.999 205.535 116.361  0.00  0.00     0.095 A 
ATOM      4  N1   11 d         -13.693 206.097 115.153  0.00  0.00    -0.057 N 
ATOM      5  C4   11 d         -13.021 207.256 115.054  0.00  0.00     0.751 A 
ATOM      6  N2   11 d         -12.867 207.569 113.761  0.00  0.00    -0.034 NA
ATOM      7  C5   11 d         -13.511 206.584 113.084  0.00  0.00     0.272 A 
ATOM      8  N3   11 d         -13.974 205.660 113.966  0.00  0.00    -0.126 NA
ATOM      9  N4   11 d         -12.603 207.939 116.150  0.00  0.00    -0.072 NA
ATOM     10  C7   11 d         -12.897 207.444 117.391  0.00  0.00     0.156 A 
ATOM     11  C8   11 d         -14.680 204.316 116.469  0.00  0.00     0.050 A 
ATOM     12  C9   11 d         -14.994 203.813 117.736  0.00  0.00     0.096 A 
ATOM     13  N5   11 d         -14.674 204.514 118.878  0.00  0.00    -0.323 N 
ATOM     14  O2   11 d         -13.700 206.355 119.832  0.00  0.00    -0.267 OA
ENDROOT
BRANCH  13  15
ATOM     15  C10  11 d         -15.129 203.999 120.186  0.00  0.00     0.136 C 
BRANCH  15  16
ATOM     16  C11  11 d         -16.659 203.957 120.317  0.00  0.00     0.061 C 
BRANCH  16  17
ATOM     17  C12  11 d         -17.150 204.710 121.516  0.00  0.00    -0.029 A 
ATOM     18  C13  11 d         -18.275 204.452 122.291  0.00  0.00     0.001 A 
ATOM     19  C14  11 d         -18.366 205.456 123.234  0.00  0.00     0.043 A 
ATOM     20  C19  11 d         -19.211 203.407 122.246  0.00  0.00     0.051 A 
ATOM     21  C15  11 d         -19.399 205.482 124.179  0.00  0.00     0.033 A 
ATOM     22  N6   11 d         -17.342 206.311 123.065  0.00  0.00    -0.365 N 
ATOM     23  C16  11 d         -20.344 204.438 124.160  0.00  0.00     0.039 A 
ATOM     24  C17  11 d         -20.265 203.415 123.182  0.00  0.00     0.069 A 
ATOM     25  C20  11 d         -16.592 205.879 122.027  0.00  0.00     0.096 A 
ATOM     26  H14  11 d         -17.158 207.175 123.637  0.00  0.00     0.165 HD
BRANCH  24  27
ATOM     27  O1   11 d         -21.173 202.323 123.235  0.00  0.00    -0.356 OA
ATOM     28  C18  11 d         -20.867 201.388 122.172  0.00  0.00     0.210 C 
ENDBRANCH  24  27
ENDBRANCH  16  17
ENDBRANCH  15  16
ENDBRANCH  13  15
BRANCH   7  29
ATOM     29  C6   11 d         -13.493 206.409 111.593  0.00  0.00     0.455 C 
ATOM     30  F1   11 d         -14.325 207.341 110.980  0.00  0.00    -0.163 F 
ATOM     31  F2   11 d         -13.922 205.131 111.244  0.00  0.00    -0.163 F 
ATOM     32  F3   11 d         -12.195 206.592 111.124  0.00  0.00    -0.163 F 
ENDBRANCH   7  29
TORSDOF 5
ENDMDL
MODEL 12
REMARK VINA RESULT:      -8.5      3.349      4.295
REMARK  5 active torsions:
REMARK  status: ('A' for Active; 'I' for Inactive)
REMARK    1  A    between atoms: C5_7  and  C6_8 
REMARK    2  A    between atoms: N5_17  and  C10_18 
REMARK    3  A    between atoms: C10_18  and  C11_19 
REMARK    4  A    between atoms: C11_19  and  C12_20 
REMARK    5  A    between atoms: C17_25  and  O1_26 
ROOT
ATOM      1  C1   11 d         -11.944 207.188 117.641  0.00  0.00     0.261 A 
ATOM      2  C2   11 d         -12.750 206.770 116.565  0.00  0.00     0.080 A 
ATOM      3  C3   11 d         -12.431 207.213 115.256  0.00  0.00     0.095 A 
ATOM      4  N1   11 d         -13.184 206.740 114.219  0.00  0.00    -0.057 N 
ATOM      5  C4   11 d         -14.222 205.908 114.410  0.00  0.00     0.751 A 
ATOM      6  N2   11 d         -14.770 205.606 113.226  0.00  0.00    -0.034 NA
ATOM      7  C5   11 d         -13.998 206.243 112.309  0.00  0.00     0.272 A 
ATOM      8  N3   11 d         -13.051 206.977 112.952  0.00  0.00    -0.126 NA
ATOM      9  N4   11 d         -14.586 205.489 115.648  0.00  0.00    -0.072 NA
ATOM     10  C7   11 d         -13.859 205.906 116.730  0.00  0.00     0.156 A 
ATOM     11  C8   11 d         -11.362 208.098 115.064  0.00  0.00     0.050 A 
ATOM     12  C9   11 d         -10.608 208.516 116.166  0.00  0.00     0.096 A 
ATOM     13  N5   11 d         -10.879 208.046 117.431  0.00  0.00    -0.323 N 
ATOM     14  O2   11 d         -12.185 206.751 118.797  0.00  0.00    -0.267 OA
ENDROOT
BRANCH  13  15
ATOM     15  C10  11 d          -9.984 208.427 118.543  0.00  0.00     0.136 C 
BRANCH  15  16
ATOM     16  C11  11 d          -8.741 207.529 118.650  0.00  0.00     0.061 C 
BRANCH  16  17
ATOM     17  C12  11 d          -7.487 208.238 118.237  0.00  0.00    -0.029 A 
ATOM     18  C13  11 d          -6.798 209.231 118.923  0.00  0.00     0.001 A 
ATOM     19  C14  11 d          -5.751 209.637 118.120  0.00  0.00     0.043 A 
ATOM     20  C19  11 d          -7.004 209.796 120.192  0.00  0.00     0.051 A 
ATOM     21  C15  11 d          -4.857 210.634 118.529  0.00  0.00     0.033 A 
ATOM     22  N6   11 d          -5.775 208.929 116.977  0.00  0.00    -0.365 N 
ATOM     23  C16  11 d          -5.037 211.206 119.803  0.00  0.00     0.039 A 
ATOM     24  C17  11 d          -6.122 210.806 120.623  0.00  0.00     0.069 A 
ATOM     25  C20  11 d          -6.822 208.074 117.025  0.00  0.00     0.096 A 
ATOM     26  H14  11 d          -5.101 209.027 116.175  0.00  0.00     0.165 HD
BRANCH  24  27
ATOM     27  O1   11 d          -6.234 211.329 121.940  0.00  0.00    -0.356 OA
ATOM     28  C18  11 d          -5.768 210.343 122.894  0.00  0.00     0.210 C 
ENDBRANCH  24  27
ENDBRANCH  16  17
ENDBRANCH  15  16
ENDBRANCH  13  15
BRANCH   7  29
ATOM     29  C6   11 d         -14.299 206.333 110.842  0.00  0.00     0.455 C 
ATOM     30  F1   11 d         -13.216 206.872 110.153  0.00  0.00    -0.163 F 
ATOM     31  F2   11 d         -15.414 207.136 110.617  0.00  0.00    -0.163 F 
ATOM     32  F3   11 d         -14.554 205.058 110.345  0.00  0.00    -0.163 F 
ENDBRANCH   7  29
TORSDOF 5
ENDMDL
MODEL 13
REMARK VINA RESULT:      -8.5      5.826     10.342
REMARK  5 active torsions:
REMARK  status: ('A' for Active; 'I' for Inactive)
REMARK    1  A    between atoms: C5_7  and  C6_8 
REMARK    2  A    between atoms: N5_17  and  C10_18 
REMARK    3  A    between atoms: C10_18  and  C11_19 
REMARK    4  A    between atoms: C11_19  and  C12_20 
REMARK    5  A    between atoms: C17_25  and  O1_26 
ROOT
ATOM      1  C1   11 d         -13.039 206.676 117.897  0.00  0.00     0.261 A 
ATOM      2  C2   11 d         -13.042 206.855 116.501  0.00  0.00     0.080 A 
ATOM      3  C3   11 d         -13.801 205.966 115.697  0.00  0.00     0.095 A 
ATOM      4  N1   11 d         -13.846 206.199 114.352  0.00  0.00    -0.057 N 
ATOM      5  C4   11 d         -13.173 207.211 113.779  0.00  0.00     0.751 A 
ATOM      6  N2   11 d         -13.402 207.203 112.459  0.00  0.00    -0.034 NA
ATOM      7  C5   11 d         -14.275 206.183 112.261  0.00  0.00     0.272 A 
ATOM      8  N3   11 d         -14.498 205.547 113.441  0.00  0.00    -0.126 NA
ATOM      9  N4   11 d         -12.404 208.062 114.504  0.00  0.00    -0.072 NA
ATOM     10  C7   11 d         -12.335 207.900 115.861  0.00  0.00     0.156 A 
ATOM     11  C8   11 d         -14.484 204.899 116.296  0.00  0.00     0.050 A 
ATOM     12  C9   11 d         -14.425 204.738 117.684  0.00  0.00     0.096 A 
ATOM     13  N5   11 d         -13.736 205.630 118.475  0.00  0.00    -0.323 N 
ATOM     14  O2   11 d         -12.418 207.497 118.622  0.00  0.00    -0.267 OA
ENDROOT
BRANCH  13  15
ATOM     15  C10  11 d         -13.800 205.483 119.944  0.00  0.00     0.136 C 
BRANCH  15  16
ATOM     16  C11  11 d         -14.621 204.263 120.391  0.00  0.00     0.061 C 
BRANCH  16  17
ATOM     17  C12  11 d         -14.623 204.091 121.880  0.00  0.00    -0.029 A 
ATOM     18  C13  11 d         -15.699 204.196 122.754  0.00  0.00     0.001 A 
ATOM     19  C14  11 d         -15.207 204.038 124.034  0.00  0.00     0.043 A 
ATOM     20  C19  11 d         -17.068 204.403 122.520  0.00  0.00     0.051 A 
ATOM     21  C15  11 d         -16.047 204.087 125.154  0.00  0.00     0.033 A 
ATOM     22  N6   11 d         -13.878 203.840 123.973  0.00  0.00    -0.365 N 
ATOM     23  C16  11 d         -17.425 204.282 124.942  0.00  0.00     0.039 A 
ATOM     24  C17  11 d         -17.932 204.463 123.631  0.00  0.00     0.069 A 
ATOM     25  C20  11 d         -13.501 203.870 122.674  0.00  0.00     0.096 A 
ATOM     26  H14  11 d         -13.236 203.694 124.794  0.00  0.00     0.165 HD
BRANCH  24  27
ATOM     27  O1   11 d         -19.336 204.568 123.430  0.00  0.00    -0.356 OA
ATOM     28  C18  11 d         -19.599 204.984 122.068  0.00  0.00     0.210 C 
ENDBRANCH  24  27
ENDBRANCH  16  17
ENDBRANCH  15  16
ENDBRANCH  13  15
BRANCH   7  29
ATOM     29  C6   11 d         -14.719 205.677 110.920  0.00  0.00     0.455 C 
ATOM     30  F1   11 d         -14.100 206.391 109.898  0.00  0.00    -0.163 F 
ATOM     31  F2   11 d         -16.099 205.805 110.779  0.00  0.00    -0.163 F 
ATOM     32  F3   11 d         -14.376 204.334 110.797  0.00  0.00    -0.163 F 
ENDBRANCH   7  29
TORSDOF 5
ENDMDL
MODEL 14
REMARK VINA RESULT:      -8.4      3.996      5.204
REMARK  5 active torsions:
REMARK  status: ('A' for Active; 'I' for Inactive)
REMARK    1  A    between atoms: C5_7  and  C6_8 
REMARK    2  A    between atoms: N5_17  and  C10_18 
REMARK    3  A    between atoms: C10_18  and  C11_19 
REMARK    4  A    between atoms: C11_19  and  C12_20 
REMARK    5  A    between atoms: C17_25  and  O1_26 
ROOT
ATOM      1  C1   11 d         -11.473 206.714 117.070  0.00  0.00     0.261 A 
ATOM      2  C2   11 d         -12.522 206.444 116.171  0.00  0.00     0.080 A 
ATOM      3  C3   11 d         -12.522 207.085 114.905  0.00  0.00     0.095 A 
ATOM      4  N1   11 d         -13.511 206.757 114.022  0.00  0.00    -0.057 N 
ATOM      5  C4   11 d         -14.485 205.884 114.330  0.00  0.00     0.751 A 
ATOM      6  N2   11 d         -15.308 205.750 113.282  0.00  0.00    -0.034 NA
ATOM      7  C5   11 d         -14.771 206.534 112.313  0.00  0.00     0.272 A 
ATOM      8  N3   11 d         -13.685 207.183 112.811  0.00  0.00    -0.126 NA
ATOM      9  N4   11 d         -14.545 205.276 115.542  0.00  0.00    -0.072 NA
ATOM     10  C7   11 d         -13.572 205.542 116.466  0.00  0.00     0.156 A 
ATOM     11  C8   11 d         -11.517 208.011 114.596  0.00  0.00     0.050 A 
ATOM     12  C9   11 d         -10.513 208.275 115.533  0.00  0.00     0.096 A 
ATOM     13  N5   11 d         -10.477 207.615 116.741  0.00  0.00    -0.323 N 
ATOM     14  O2   11 d         -11.434 206.103 118.171  0.00  0.00    -0.267 OA
ENDROOT
BRANCH  13  15
ATOM     15  C10  11 d          -9.333 207.844 117.648  0.00  0.00     0.136 C 
BRANCH  15  16
ATOM     16  C11  11 d          -9.681 208.753 118.837  0.00  0.00     0.061 C 
BRANCH  16  17
ATOM     17  C12  11 d          -8.769 208.537 120.007  0.00  0.00    -0.029 A 
ATOM     18  C13  11 d          -7.758 209.368 120.472  0.00  0.00     0.001 A 
ATOM     19  C14  11 d          -7.138 208.718 121.521  0.00  0.00     0.043 A 
ATOM     20  C19  11 d          -7.347 210.647 120.063  0.00  0.00     0.051 A 
ATOM     21  C15  11 d          -6.069 209.298 122.214  0.00  0.00     0.033 A 
ATOM     22  N6   11 d          -7.734 207.528 121.712  0.00  0.00    -0.365 N 
ATOM     23  C16  11 d          -5.647 210.585 121.828  0.00  0.00     0.039 A 
ATOM     24  C17  11 d          -6.268 211.249 120.741  0.00  0.00     0.069 A 
ATOM     25  C20  11 d          -8.726 207.395 120.804  0.00  0.00     0.096 A 
ATOM     26  H14  11 d          -7.470 206.814 122.439  0.00  0.00     0.165 HD
BRANCH  24  27
ATOM     27  O1   11 d          -5.890 212.582 120.425  0.00  0.00    -0.356 OA
ATOM     28  C18  11 d          -4.466 212.744 120.638  0.00  0.00     0.210 C 
ENDBRANCH  24  27
ENDBRANCH  16  17
ENDBRANCH  15  16
ENDBRANCH  13  15
BRANCH   7  29
ATOM     29  C6   11 d         -15.416 206.836 110.992  0.00  0.00     0.455 C 
ATOM     30  F1   11 d         -16.739 206.402 110.984  0.00  0.00    -0.163 F 
ATOM     31  F2   11 d         -14.733 206.203 109.956  0.00  0.00    -0.163 F 
ATOM     32  F3   11 d         -15.396 208.210 110.772  0.00  0.00    -0.163 F 
ENDBRANCH   7  29
TORSDOF 5
ENDMDL
MODEL 15
REMARK VINA RESULT:      -8.2      5.938      9.777
REMARK  5 active torsions:
REMARK  status: ('A' for Active; 'I' for Inactive)
REMARK    1  A    between atoms: C5_7  and  C6_8 
REMARK    2  A    between atoms: N5_17  and  C10_18 
REMARK    3  A    between atoms: C10_18  and  C11_19 
REMARK    4  A    between atoms: C11_19  and  C12_20 
REMARK    5  A    between atoms: C17_25  and  O1_26 
ROOT
ATOM      1  C1   11 d         -13.027 206.795 117.883  0.00  0.00     0.261 A 
ATOM      2  C2   11 d         -13.023 206.939 116.483  0.00  0.00     0.080 A 
ATOM      3  C3   11 d         -13.783 206.035 115.697  0.00  0.00     0.095 A 
ATOM      4  N1   11 d         -13.821 206.235 114.347  0.00  0.00    -0.057 N 
ATOM      5  C4   11 d         -13.139 207.229 113.752  0.00  0.00     0.751 A 
ATOM      6  N2   11 d         -13.362 207.190 112.432  0.00  0.00    -0.034 NA
ATOM      7  C5   11 d         -14.241 206.170 112.255  0.00  0.00     0.272 A 
ATOM      8  N3   11 d         -14.473 205.565 113.450  0.00  0.00    -0.126 NA
ATOM      9  N4   11 d         -12.369 208.093 114.459  0.00  0.00    -0.072 NA
ATOM     10  C7   11 d         -12.306 207.964 115.820  0.00  0.00     0.156 A 
ATOM     11  C8   11 d         -14.475 204.988 116.320  0.00  0.00     0.050 A 
ATOM     12  C9   11 d         -14.424 204.860 117.712  0.00  0.00     0.096 A 
ATOM     13  N5   11 d         -13.732 205.768 118.483  0.00  0.00    -0.323 N 
ATOM     14  O2   11 d         -12.403 207.630 118.590  0.00  0.00    -0.267 OA
ENDROOT
BRANCH  13  15
ATOM     15  C10  11 d         -13.803 205.657 119.955  0.00  0.00     0.136 C 
BRANCH  15  16
ATOM     16  C11  11 d         -14.435 204.339 120.430  0.00  0.00     0.061 C 
BRANCH  16  17
ATOM     17  C12  11 d         -15.027 204.451 121.802  0.00  0.00    -0.029 A 
ATOM     18  C13  11 d         -14.667 203.758 122.951  0.00  0.00     0.001 A 
ATOM     19  C14  11 d         -15.542 204.133 123.951  0.00  0.00     0.043 A 
ATOM     20  C19  11 d         -13.632 202.841 123.195  0.00  0.00     0.051 A 
ATOM     21  C15  11 d         -15.443 203.609 125.246  0.00  0.00     0.033 A 
ATOM     22  N6   11 d         -16.416 205.027 123.457  0.00  0.00    -0.365 N 
ATOM     23  C16  11 d         -14.406 202.696 125.516  0.00  0.00     0.039 A 
ATOM     24  C17  11 d         -13.516 202.294 124.488  0.00  0.00     0.069 A 
ATOM     25  C20  11 d         -16.124 205.235 122.153  0.00  0.00     0.096 A 
ATOM     26  H14  11 d         -17.201 205.483 123.989  0.00  0.00     0.165 HD
BRANCH  24  27
ATOM     27  O1   11 d         -12.422 201.443 124.802  0.00  0.00    -0.356 OA
ATOM     28  C18  11 d         -12.851 200.060 124.735  0.00  0.00     0.210 C 
ENDBRANCH  24  27
ENDBRANCH  16  17
ENDBRANCH  15  16
ENDBRANCH  13  15
BRANCH   7  29
ATOM     29  C6   11 d         -14.682 205.634 110.925  0.00  0.00     0.455 C 
ATOM     30  F1   11 d         -16.064 205.739 110.789  0.00  0.00    -0.163 F 
ATOM     31  F2   11 d         -14.323 204.295 110.791  0.00  0.00    -0.163 F 
ATOM     32  F3   11 d         -14.077 206.367 109.908  0.00  0.00    -0.163 F 
ENDBRANCH   7  29
TORSDOF 5
ENDMDL
MODEL 16
REMARK VINA RESULT:      -8.1      2.875      4.302
REMARK  5 active torsions:
REMARK  status: ('A' for Active; 'I' for Inactive)
REMARK    1  A    between atoms: C5_7  and  C6_8 
REMARK    2  A    between atoms: N5_17  and  C10_18 
REMARK    3  A    between atoms: C10_18  and  C11_19 
REMARK    4  A    between atoms: C11_19  and  C12_20 
REMARK    5  A    between atoms: C17_25  and  O1_26 
ROOT
ATOM      1  C1   11 d         -11.998 206.327 117.213  0.00  0.00     0.261 A 
ATOM      2  C2   11 d         -12.996 206.170 116.233  0.00  0.00     0.080 A 
ATOM      3  C3   11 d         -12.834 206.813 114.979  0.00  0.00     0.095 A 
ATOM      4  N1   11 d         -13.779 206.591 114.018  0.00  0.00    -0.057 N 
ATOM      5  C4   11 d         -14.858 205.821 114.241  0.00  0.00     0.751 A 
ATOM      6  N2   11 d         -15.607 205.777 113.132  0.00  0.00    -0.034 NA
ATOM      7  C5   11 d         -14.919 206.506 112.216  0.00  0.00     0.272 A 
ATOM      8  N3   11 d         -13.815 207.038 112.803  0.00  0.00    -0.126 NA
ATOM      9  N4   11 d         -15.073 205.218 115.438  0.00  0.00    -0.072 NA
ATOM     10  C7   11 d         -14.152 205.379 116.437  0.00  0.00     0.156 A 
ATOM     11  C8   11 d         -11.719 207.632 114.758  0.00  0.00     0.050 A 
ATOM     12  C9   11 d         -10.769 207.789 115.773  0.00  0.00     0.096 A 
ATOM     13  N5   11 d         -10.893 207.124 116.972  0.00  0.00    -0.323 N 
ATOM     14  O2   11 d         -12.106 205.711 118.306  0.00  0.00    -0.267 OA
ENDROOT
BRANCH  13  15
ATOM     15  C10  11 d          -9.805 207.230 117.967  0.00  0.00     0.136 C 
BRANCH  15  16
ATOM     16  C11  11 d          -9.816 208.565 118.729  0.00  0.00     0.061 C 
BRANCH  16  17
ATOM     17  C12  11 d          -8.560 208.783 119.516  0.00  0.00    -0.029 A 
ATOM     18  C13  11 d          -7.247 208.759 119.061  0.00  0.00     0.001 A 
ATOM     19  C14  11 d          -6.427 208.932 120.159  0.00  0.00     0.043 A 
ATOM     20  C19  11 d          -6.715 208.613 117.770  0.00  0.00     0.051 A 
ATOM     21  C15  11 d          -5.032 208.959 120.034  0.00  0.00     0.033 A 
ATOM     22  N6   11 d          -7.188 209.062 121.259  0.00  0.00    -0.365 N 
ATOM     23  C16  11 d          -4.477 208.826 118.747  0.00  0.00     0.039 A 
ATOM     24  C17  11 d          -5.315 208.630 117.620  0.00  0.00     0.069 A 
ATOM     25  C20  11 d          -8.487 208.973 120.894  0.00  0.00     0.096 A 
ATOM     26  H14  11 d          -6.836 209.201 122.241  0.00  0.00     0.165 HD
BRANCH  24  27
ATOM     27  O1   11 d          -4.742 208.589 116.320  0.00  0.00    -0.356 OA
ATOM     28  C18  11 d          -5.071 207.328 115.686  0.00  0.00     0.210 C 
ENDBRANCH  24  27
ENDBRANCH  16  17
ENDBRANCH  15  16
ENDBRANCH  13  15
BRANCH   7  29
ATOM     29  C6   11 d         -15.427 206.877 110.854  0.00  0.00     0.455 C 
ATOM     30  F1   11 d         -16.766 206.524 110.717  0.00  0.00    -0.163 F 
ATOM     31  F2   11 d         -14.692 206.230 109.863  0.00  0.00    -0.163 F 
ATOM     32  F3   11 d         -15.307 208.252 110.676  0.00  0.00    -0.163 F 
ENDBRANCH   7  29
TORSDOF 5
ENDMDL
MODEL 17
REMARK VINA RESULT:      -8.1      4.087      5.311
REMARK  5 active torsions:
REMARK  status: ('A' for Active; 'I' for Inactive)
REMARK    1  A    between atoms: C5_7  and  C6_8 
REMARK    2  A    between atoms: N5_17  and  C10_18 
REMARK    3  A    between atoms: C10_18  and  C11_19 
REMARK    4  A    between atoms: C11_19  and  C12_20 
REMARK    5  A    between atoms: C17_25  and  O1_26 
ROOT
ATOM      1  C1   11 d         -11.568 206.796 116.940  0.00  0.00     0.261 A 
ATOM      2  C2   11 d         -12.596 206.496 116.026  0.00  0.00     0.080 A 
ATOM      3  C3   11 d         -12.587 207.124 114.754  0.00  0.00     0.095 A 
ATOM      4  N1   11 d         -13.553 206.767 113.857  0.00  0.00    -0.057 N 
ATOM      5  C4   11 d         -14.515 205.878 114.158  0.00  0.00     0.751 A 
ATOM      6  N2   11 d         -15.317 205.717 113.097  0.00  0.00    -0.034 NA
ATOM      7  C5   11 d         -14.778 206.502 112.129  0.00  0.00     0.272 A 
ATOM      8  N3   11 d         -13.714 207.177 112.638  0.00  0.00    -0.126 NA
ATOM      9  N4   11 d         -14.584 205.282 115.375  0.00  0.00    -0.072 NA
ATOM     10  C7   11 d         -13.632 205.577 116.313  0.00  0.00     0.156 A 
ATOM     11  C8   11 d         -11.595 208.066 114.451  0.00  0.00     0.050 A 
ATOM     12  C9   11 d         -10.612 208.360 115.403  0.00  0.00     0.096 A 
ATOM     13  N5   11 d         -10.584 207.713 116.618  0.00  0.00    -0.323 N 
ATOM     14  O2   11 d         -11.536 206.198 118.048  0.00  0.00    -0.267 OA
ENDROOT
BRANCH  13  15
ATOM     15  C10  11 d          -9.461 207.974 117.542  0.00  0.00     0.136 C 
BRANCH  15  16
ATOM     16  C11  11 d          -9.900 208.661 118.845  0.00  0.00     0.061 C 
BRANCH  16  17
ATOM     17  C12  11 d          -8.819 208.664 119.882  0.00  0.00    -0.029 A 
ATOM     18  C13  11 d          -8.093 207.583 120.369  0.00  0.00     0.001 A 
ATOM     19  C14  11 d          -7.266 208.058 121.367  0.00  0.00     0.043 A 
ATOM     20  C19  11 d          -8.087 206.228 120.000  0.00  0.00     0.051 A 
ATOM     21  C15  11 d          -6.395 207.209 122.063  0.00  0.00     0.033 A 
ATOM     22  N6   11 d          -7.458 209.381 121.505  0.00  0.00    -0.365 N 
ATOM     23  C16  11 d          -6.365 205.848 121.702  0.00  0.00     0.039 A 
ATOM     24  C17  11 d          -7.225 205.354 120.690  0.00  0.00     0.069 A 
ATOM     25  C20  11 d          -8.398 209.772 120.614  0.00  0.00     0.096 A 
ATOM     26  H14  11 d          -6.968 210.009 122.193  0.00  0.00     0.165 HD
BRANCH  24  27
ATOM     27  O1   11 d          -7.116 203.997 120.279  0.00  0.00    -0.356 OA
ATOM     28  C18  11 d          -5.758 203.730 119.851  0.00  0.00     0.210 C 
ENDBRANCH  24  27
ENDBRANCH  16  17
ENDBRANCH  15  16
ENDBRANCH  13  15
BRANCH   7  29
ATOM     29  C6   11 d         -15.406 206.777 110.795  0.00  0.00     0.455 C 
ATOM     30  F1   11 d         -14.730 206.096 109.786  0.00  0.00    -0.163 F 
ATOM     31  F2   11 d         -15.376 208.140 110.509  0.00  0.00    -0.163 F 
ATOM     32  F3   11 d         -16.730 206.349 110.811  0.00  0.00    -0.163 F 
ENDBRANCH   7  29
TORSDOF 5
ENDMDL
MODEL 18
REMARK VINA RESULT:      -8.1      5.340     10.365
REMARK  5 active torsions:
REMARK  status: ('A' for Active; 'I' for Inactive)
REMARK    1  A    between atoms: C5_7  and  C6_8 
REMARK    2  A    between atoms: N5_17  and  C10_18 
REMARK    3  A    between atoms: C10_18  and  C11_19 
REMARK    4  A    between atoms: C11_19  and  C12_20 
REMARK    5  A    between atoms: C17_25  and  O1_26 
ROOT
ATOM      1  C1   11 d         -12.004 207.002 118.059  0.00  0.00     0.261 A 
ATOM      2  C2   11 d         -11.610 207.302 116.742  0.00  0.00     0.080 A 
ATOM      3  C3   11 d         -12.255 206.643 115.664  0.00  0.00     0.095 A 
ATOM      4  N1   11 d         -11.906 207.000 114.393  0.00  0.00    -0.057 N 
ATOM      5  C4   11 d         -10.958 207.919 114.144  0.00  0.00     0.751 A 
ATOM      6  N2   11 d         -10.828 208.072 112.819  0.00  0.00    -0.034 NA
ATOM      7  C5   11 d         -11.763 207.250 112.278  0.00  0.00     0.272 A 
ATOM      8  N3   11 d         -12.386 206.563 113.272  0.00  0.00    -0.126 NA
ATOM      9  N4   11 d         -10.289 208.548 115.142  0.00  0.00    -0.072 NA
ATOM     10  C7   11 d         -10.606 208.254 116.441  0.00  0.00     0.156 A 
ATOM     11  C8   11 d         -13.228 205.669 115.929  0.00  0.00     0.050 A 
ATOM     12  C9   11 d         -13.564 205.376 117.255  0.00  0.00     0.096 A 
ATOM     13  N5   11 d         -12.981 206.052 118.303  0.00  0.00    -0.323 N 
ATOM     14  O2   11 d         -11.478 207.627 119.017  0.00  0.00    -0.267 OA
ENDROOT
BRANCH  13  15
ATOM     15  C10  11 d         -13.453 205.788 119.678  0.00  0.00     0.136 C 
BRANCH  15  16
ATOM     16  C11  11 d         -14.793 206.470 119.995  0.00  0.00     0.061 C 
BRANCH  16  17
ATOM     17  C12  11 d         -15.293 206.136 121.367  0.00  0.00    -0.029 A 
ATOM     18  C13  11 d         -16.585 205.797 121.751  0.00  0.00     0.001 A 
ATOM     19  C14  11 d         -16.584 205.655 123.124  0.00  0.00     0.043 A 
ATOM     20  C19  11 d         -17.752 205.591 120.998  0.00  0.00     0.051 A 
ATOM     21  C15  11 d         -17.746 205.309 123.827  0.00  0.00     0.033 A 
ATOM     22  N6   11 d         -15.344 205.890 123.589  0.00  0.00    -0.365 N 
ATOM     23  C16  11 d         -18.925 205.087 123.091  0.00  0.00     0.039 A 
ATOM     24  C17  11 d         -18.935 205.250 121.683  0.00  0.00     0.069 A 
ATOM     25  C20  11 d         -14.544 206.186 122.540  0.00  0.00     0.096 A 
ATOM     26  H14  11 d         -15.046 205.859 124.598  0.00  0.00     0.165 HD
BRANCH  24  27
ATOM     27  O1   11 d         -20.111 204.933 120.949  0.00  0.00    -0.356 OA
ATOM     28  C18  11 d         -19.806 203.916 119.963  0.00  0.00     0.210 C 
ENDBRANCH  24  27
ENDBRANCH  16  17
ENDBRANCH  15  16
ENDBRANCH  13  15
BRANCH   7  29
ATOM     29  C6   11 d         -11.908 206.956 110.814  0.00  0.00     0.455 C 
ATOM     30  F1   11 d         -13.177 207.314 110.367  0.00  0.00    -0.163 F 
ATOM     31  F2   11 d         -11.714 205.600 110.564  0.00  0.00    -0.163 F 
ATOM     32  F3   11 d         -10.962 207.686 110.101  0.00  0.00    -0.163 F 
ENDBRANCH   7  29
TORSDOF 5
ENDMDL
MODEL 19
REMARK VINA RESULT:      -8.1      5.542      9.439
REMARK  5 active torsions:
REMARK  status: ('A' for Active; 'I' for Inactive)
REMARK    1  A    between atoms: C5_7  and  C6_8 
REMARK    2  A    between atoms: N5_17  and  C10_18 
REMARK    3  A    between atoms: C10_18  and  C11_19 
REMARK    4  A    between atoms: C11_19  and  C12_20 
REMARK    5  A    between atoms: C17_25  and  O1_26 
ROOT
ATOM      1  C1   11 d         -12.859 206.765 117.915  0.00  0.00     0.261 A 
ATOM      2  C2   11 d         -12.908 206.897 116.514  0.00  0.00     0.080 A 
ATOM      3  C3   11 d         -13.729 206.011 115.770  0.00  0.00     0.095 A 
ATOM      4  N1   11 d         -13.815 206.201 114.420  0.00  0.00    -0.057 N 
ATOM      5  C4   11 d         -13.127 207.166 113.788  0.00  0.00     0.751 A 
ATOM      6  N2   11 d         -13.406 207.123 112.478  0.00  0.00    -0.034 NA
ATOM      7  C5   11 d         -14.323 206.131 112.348  0.00  0.00     0.272 A 
ATOM      8  N3   11 d         -14.525 205.544 113.557  0.00  0.00    -0.126 NA
ATOM      9  N4   11 d         -12.301 208.012 114.454  0.00  0.00    -0.072 NA
ATOM     10  C7   11 d         -12.186 207.892 115.813  0.00  0.00     0.156 A 
ATOM     11  C8   11 d         -14.427 204.992 116.430  0.00  0.00     0.050 A 
ATOM     12  C9   11 d         -14.323 204.875 117.820  0.00  0.00     0.096 A 
ATOM     13  N5   11 d         -13.571 205.766 118.554  0.00  0.00    -0.323 N 
ATOM     14  O2   11 d         -12.180 207.586 118.587  0.00  0.00    -0.267 OA
ENDROOT
BRANCH  13  15
ATOM     15  C10  11 d         -13.585 205.671 120.028  0.00  0.00     0.136 C 
BRANCH  15  16
ATOM     16  C11  11 d         -14.954 205.260 120.592  0.00  0.00     0.061 C 
BRANCH  16  17
ATOM     17  C12  11 d         -14.851 204.656 121.960  0.00  0.00    -0.029 A 
ATOM     18  C13  11 d         -14.470 205.275 123.144  0.00  0.00     0.001 A 
ATOM     19  C14  11 d         -14.446 204.305 124.127  0.00  0.00     0.043 A 
ATOM     20  C19  11 d         -14.157 206.613 123.433  0.00  0.00     0.051 A 
ATOM     21  C15  11 d         -14.100 204.610 125.449  0.00  0.00     0.033 A 
ATOM     22  N6   11 d         -14.800 203.125 123.588  0.00  0.00    -0.365 N 
ATOM     23  C16  11 d         -13.794 205.948 125.764  0.00  0.00     0.039 A 
ATOM     24  C17  11 d         -13.799 206.943 124.755  0.00  0.00     0.069 A 
ATOM     25  C20  11 d         -15.049 203.314 122.272  0.00  0.00     0.096 A 
ATOM     26  H14  11 d         -14.865 202.207 124.099  0.00  0.00     0.165 HD
BRANCH  24  27
ATOM     27  O1   11 d         -13.576 208.302 125.109  0.00  0.00    -0.356 OA
ATOM     28  C18  11 d         -14.249 208.593 126.358  0.00  0.00     0.210 C 
ENDBRANCH  24  27
ENDBRANCH  16  17
ENDBRANCH  15  16
ENDBRANCH  13  15
BRANCH   7  29
ATOM     29  C6   11 d         -14.836 205.598 111.043  0.00  0.00     0.455 C 
ATOM     30  F1   11 d         -16.227 205.533 111.053  0.00  0.00    -0.163 F 
ATOM     31  F2   11 d         -14.333 204.322 110.801  0.00  0.00    -0.163 F 
ATOM     32  F3   11 d         -14.437 206.442 110.011  0.00  0.00    -0.163 F 
ENDBRANCH   7  29
TORSDOF 5
ENDMDL
MODEL 20
REMARK VINA RESULT:      -7.9      5.345      8.568
REMARK  5 active torsions:
REMARK  status: ('A' for Active; 'I' for Inactive)
REMARK    1  A    between atoms: C5_7  and  C6_8 
REMARK    2  A    between atoms: N5_17  and  C10_18 
REMARK    3  A    between atoms: C10_18  and  C11_19 
REMARK    4  A    between atoms: C11_19  and  C12_20 
REMARK    5  A    between atoms: C17_25  and  O1_26 
ROOT
ATOM      1  C1   11 d         -13.008 206.783 118.002  0.00  0.00     0.261 A 
ATOM      2  C2   11 d         -13.038 206.921 116.601  0.00  0.00     0.080 A 
ATOM      3  C3   11 d         -13.784 205.989 115.836  0.00  0.00     0.095 A 
ATOM      4  N1   11 d         -13.857 206.182 114.485  0.00  0.00    -0.057 N 
ATOM      5  C4   11 d         -13.222 207.195 113.873  0.00  0.00     0.751 A 
ATOM      6  N2   11 d         -13.471 207.143 112.558  0.00  0.00    -0.034 NA
ATOM      7  C5   11 d         -14.318 206.094 112.403  0.00  0.00     0.272 A 
ATOM      8  N3   11 d         -14.504 205.486 113.605  0.00  0.00    -0.126 NA
ATOM      9  N4   11 d         -12.466 208.088 114.560  0.00  0.00    -0.072 NA
ATOM     10  C7   11 d         -12.370 207.967 115.920  0.00  0.00     0.156 A 
ATOM     11  C8   11 d         -14.427 204.921 116.476  0.00  0.00     0.050 A 
ATOM     12  C9   11 d         -14.341 204.802 117.867  0.00  0.00     0.096 A 
ATOM     13  N5   11 d         -13.665 205.735 118.621  0.00  0.00    -0.323 N 
ATOM     14  O2   11 d         -12.398 207.642 118.692  0.00  0.00    -0.267 OA
ENDROOT
BRANCH  13  15
ATOM     15  C10  11 d         -13.701 205.629 120.094  0.00  0.00     0.136 C 
BRANCH  15  16
ATOM     16  C11  11 d         -14.366 204.334 120.588  0.00  0.00     0.061 C 
BRANCH  16  17
ATOM     17  C12  11 d         -14.113 204.081 122.043  0.00  0.00    -0.029 A 
ATOM     18  C13  11 d         -12.899 204.101 122.719  0.00  0.00     0.001 A 
ATOM     19  C14  11 d         -13.148 203.730 124.026  0.00  0.00     0.043 A 
ATOM     20  C19  11 d         -11.603 204.430 122.290  0.00  0.00     0.051 A 
ATOM     21  C15  11 d         -12.121 203.655 124.975  0.00  0.00     0.033 A 
ATOM     22  N6   11 d         -14.462 203.488 124.170  0.00  0.00    -0.365 N 
ATOM     23  C16  11 d         -10.815 203.991 124.569  0.00  0.00     0.039 A 
ATOM     24  C17  11 d         -10.552 204.355 123.224  0.00  0.00     0.069 A 
ATOM     25  C20  11 d         -15.068 203.694 122.979  0.00  0.00     0.096 A 
ATOM     26  H14  11 d         -14.941 203.183 125.056  0.00  0.00     0.165 HD
BRANCH  24  27
ATOM     27  O1   11 d          -9.245 204.778 122.856  0.00  0.00    -0.356 OA
ATOM     28  C18  11 d          -9.258 205.249 121.486  0.00  0.00     0.210 C 
ENDBRANCH  24  27
ENDBRANCH  16  17
ENDBRANCH  15  16
ENDBRANCH  13  15
BRANCH   7  29
ATOM     29  C6   11 d         -14.769 205.537 111.085  0.00  0.00     0.455 C 
ATOM     30  F1   11 d         -14.184 206.236 110.033  0.00  0.00    -0.163 F 
ATOM     31  F2   11 d         -16.154 205.626 110.962  0.00  0.00    -0.163 F 
ATOM     32  F3   11 d         -14.394 204.200 110.996  0.00  0.00    -0.163 F 
ENDBRANCH   7  29
TORSDOF 5
ENDMDL
