MODEL 1
REMARK VINA RESULT:      -8.6      0.000      0.000
REMARK  4 active torsions:
REMARK  status: ('A' for Active; 'I' for Inactive)
REMARK    1  A    between atoms: C1_1  and  C2_2 
REMARK       I    between atoms: C1_1  and  N2_12 
REMARK    2  A    between atoms: C4_4  and  N1_5 
REMARK    3  A    between atoms: N2_12  and  C8_13 
REMARK    4  A    between atoms: C8_13  and  C9_14 
ROOT
ATOM      1  C1   11 d         -11.297 207.967 114.577  0.00  0.00     0.252 C 
ATOM      2  O3   11 d         -11.351 207.551 115.789  0.00  0.00    -0.268 OA
ATOM      3  N2   11 d         -12.487 208.016 113.791  0.00  0.00    -0.349 N 
ATOM      4  H5   11 d         -12.428 208.374 112.781  0.00  0.00     0.163 HD
ENDROOT
BRANCH   1   5
ATOM      5  C2   11 d          -9.985 208.396 114.019  0.00  0.00     0.034 A 
ATOM      6  C3   11 d          -8.997 208.927 114.873  0.00  0.00     0.053 A 
ATOM      7  C4   11 d          -7.749 209.373 114.373  0.00  0.00     0.103 A 
ATOM      8  C5   11 d          -7.501 209.239 112.988  0.00  0.00     0.036 A 
ATOM      9  C6   11 d          -8.472 208.697 112.135  0.00  0.00     0.003 A 
ATOM     10  C7   11 d          -9.707 208.281 112.643  0.00  0.00     0.017 A 
BRANCH   7  11
ATOM     11  N1   11 d          -6.782 209.927 115.218  0.00  0.00    -0.116 N 
ATOM     12  O1   11 d          -6.453 209.372 116.163  0.00  0.00    -0.532 OA
ATOM     13  O2   11 d          -6.428 211.131 115.087  0.00  0.00    -0.532 OA
ENDBRANCH   7  11
ENDBRANCH   1   5
BRANCH   3  14
ATOM     14  C8   11 d         -13.825 207.588 114.318  0.00  0.00     0.114 C 
ATOM     15  C15  11 d         -14.472 208.763 115.053  0.00  0.00     0.037 C 
BRANCH  14  16
ATOM     16  C9   11 d         -14.757 207.085 113.228  0.00  0.00    -0.036 A 
ATOM     17  C10  11 d         -14.543 207.492 111.893  0.00  0.00     0.009 A 
ATOM     18  C11  11 d         -15.419 207.091 110.874  0.00  0.00     0.001 A 
ATOM     19  C12  11 d         -16.539 206.303 111.176  0.00  0.00     0.000 A 
ATOM     20  C13  11 d         -16.786 205.923 112.501  0.00  0.00     0.001 A 
ATOM     21  C14  11 d         -15.910 206.321 113.522  0.00  0.00     0.009 A 
ENDBRANCH  14  16
ENDBRANCH   3  14
TORSDOF 4
ENDMDL
MODEL 2
REMARK VINA RESULT:      -7.9      2.883      7.728
REMARK  4 active torsions:
REMARK  status: ('A' for Active; 'I' for Inactive)
REMARK    1  A    between atoms: C1_1  and  C2_2 
REMARK       I    between atoms: C1_1  and  N2_12 
REMARK    2  A    between atoms: C4_4  and  N1_5 
REMARK    3  A    between atoms: N2_12  and  C8_13 
REMARK    4  A    between atoms: C8_13  and  C9_14 
ROOT
ATOM      1  C1   11 d         -12.663 207.999 113.820  0.00  0.00     0.252 C 
ATOM      2  O3   11 d         -13.274 208.787 114.626  0.00  0.00    -0.268 OA
ATOM      3  N2   11 d         -11.237 207.933 113.838  0.00  0.00    -0.349 N 
ATOM      4  H5   11 d         -10.739 207.263 113.164  0.00  0.00     0.163 HD
ENDROOT
BRANCH   1   5
ATOM      5  C2   11 d         -13.462 207.164 112.882  0.00  0.00     0.034 A 
ATOM      6  C3   11 d         -14.860 207.069 113.041  0.00  0.00     0.053 A 
ATOM      7  C4   11 d         -15.648 206.261 112.186  0.00  0.00     0.103 A 
ATOM      8  C5   11 d         -14.999 205.571 111.137  0.00  0.00     0.036 A 
ATOM      9  C6   11 d         -13.612 205.674 110.962  0.00  0.00     0.003 A 
ATOM     10  C7   11 d         -12.846 206.460 111.829  0.00  0.00     0.017 A 
BRANCH   7  11
ATOM     11  N1   11 d         -17.030 206.145 112.365  0.00  0.00    -0.116 N 
ATOM     12  O1   11 d         -17.752 206.700 111.672  0.00  0.00    -0.532 OA
ATOM     13  O2   11 d         -17.501 205.624 113.413  0.00  0.00    -0.532 OA
ENDBRANCH   7  11
ENDBRANCH   1   5
BRANCH   3  14
ATOM     14  C8   11 d         -10.399 208.763 114.766  0.00  0.00     0.114 C 
ATOM     15  C15  11 d         -10.396 208.114 116.152  0.00  0.00     0.037 C 
BRANCH  14  16
ATOM     16  C9   11 d          -8.971 208.940 114.275  0.00  0.00    -0.036 A 
ATOM     17  C10  11 d          -8.690 208.786 112.901  0.00  0.00     0.009 A 
ATOM     18  C11  11 d          -7.374 208.887 112.425  0.00  0.00     0.001 A 
ATOM     19  C12  11 d          -6.316 209.113 113.317  0.00  0.00     0.000 A 
ATOM     20  C13  11 d          -6.575 209.229 114.689  0.00  0.00     0.001 A 
ATOM     21  C14  11 d          -7.891 209.130 115.167  0.00  0.00     0.009 A 
ENDBRANCH  14  16
ENDBRANCH   3  14
TORSDOF 4
ENDMDL
MODEL 3
REMARK VINA RESULT:      -7.8      2.906      7.941
REMARK  4 active torsions:
REMARK  status: ('A' for Active; 'I' for Inactive)
REMARK    1  A    between atoms: C1_1  and  C2_2 
REMARK       I    between atoms: C1_1  and  N2_12 
REMARK    2  A    between atoms: C4_4  and  N1_5 
REMARK    3  A    between atoms: N2_12  and  C8_13 
REMARK    4  A    between atoms: C8_13  and  C9_14 
ROOT
ATOM      1  C1   11 d          -9.022 208.780 112.739  0.00  0.00     0.252 C 
ATOM      2  O3   11 d          -8.637 209.906 112.263  0.00  0.00    -0.268 OA
ATOM      3  N2   11 d          -8.337 208.209 113.853  0.00  0.00    -0.349 N 
ATOM      4  H5   11 d          -8.676 207.270 114.247  0.00  0.00     0.163 HD
ENDROOT
BRANCH   1   5
ATOM      5  C2   11 d         -10.186 208.092 112.115  0.00  0.00     0.034 A 
ATOM      6  C3   11 d         -11.132 207.434 112.928  0.00  0.00     0.053 A 
ATOM      7  C4   11 d         -12.236 206.744 112.367  0.00  0.00     0.103 A 
ATOM      8  C5   11 d         -12.386 206.760 110.962  0.00  0.00     0.036 A 
ATOM      9  C6   11 d         -11.459 207.425 110.149  0.00  0.00     0.003 A 
ATOM     10  C7   11 d         -10.364 208.084 110.718  0.00  0.00     0.017 A 
BRANCH   7  11
ATOM     11  N1   11 d         -13.156 206.067 113.174  0.00  0.00    -0.116 N 
ATOM     12  O1   11 d         -12.928 205.881 114.280  0.00  0.00    -0.532 OA
ATOM     13  O2   11 d         -14.133 205.455 112.661  0.00  0.00    -0.532 OA
ENDBRANCH   7  11
ENDBRANCH   1   5
BRANCH   3  14
ATOM     14  C8   11 d          -7.158 208.870 114.505  0.00  0.00     0.114 C 
ATOM     15  C15  11 d          -7.319 208.793 116.025  0.00  0.00     0.037 C 
BRANCH  14  16
ATOM     16  C9   11 d          -5.831 208.253 114.094  0.00  0.00    -0.036 A 
ATOM     17  C10  11 d          -5.087 207.521 115.044  0.00  0.00     0.009 A 
ATOM     18  C11  11 d          -3.832 206.988 114.712  0.00  0.00     0.001 A 
ATOM     19  C12  11 d          -3.289 207.203 113.438  0.00  0.00     0.000 A 
ATOM     20  C13  11 d          -3.999 207.960 112.497  0.00  0.00     0.001 A 
ATOM     21  C14  11 d          -5.255 208.493 112.826  0.00  0.00     0.009 A 
ENDBRANCH  14  16
ENDBRANCH   3  14
TORSDOF 4
ENDMDL
MODEL 4
REMARK VINA RESULT:      -7.7      3.969      6.375
REMARK  4 active torsions:
REMARK  status: ('A' for Active; 'I' for Inactive)
REMARK    1  A    between atoms: C1_1  and  C2_2 
REMARK       I    between atoms: C1_1  and  N2_12 
REMARK    2  A    between atoms: C4_4  and  N1_5 
REMARK    3  A    between atoms: N2_12  and  C8_13 
REMARK    4  A    between atoms: C8_13  and  C9_14 
ROOT
ATOM      1  C1   11 d         -13.247 206.602 116.127  0.00  0.00     0.252 C 
ATOM      2  O3   11 d         -12.576 207.668 116.361  0.00  0.00    -0.268 OA
ATOM      3  N2   11 d         -13.438 206.165 114.781  0.00  0.00    -0.349 N 
ATOM      4  H5   11 d         -13.994 205.266 114.601  0.00  0.00     0.163 HD
ENDROOT
BRANCH   1   5
ATOM      5  C2   11 d         -13.812 205.837 117.273  0.00  0.00     0.034 A 
ATOM      6  C3   11 d         -13.831 206.413 118.560  0.00  0.00     0.053 A 
ATOM      7  C4   11 d         -14.333 205.704 119.680  0.00  0.00     0.103 A 
ATOM      8  C5   11 d         -14.851 204.407 119.468  0.00  0.00     0.036 A 
ATOM      9  C6   11 d         -14.850 203.834 118.189  0.00  0.00     0.003 A 
ATOM     10  C7   11 d         -14.331 204.541 117.098  0.00  0.00     0.017 A 
BRANCH   7  11
ATOM     11  N1   11 d         -14.323 206.266 120.960  0.00  0.00    -0.116 N 
ATOM     12  O1   11 d         -14.900 207.231 121.173  0.00  0.00    -0.532 OA
ATOM     13  O2   11 d         -13.508 205.861 121.834  0.00  0.00    -0.532 OA
ENDBRANCH   7  11
ENDBRANCH   1   5
BRANCH   3  14
ATOM     14  C8   11 d         -12.888 206.911 113.602  0.00  0.00     0.114 C 
ATOM     15  C15  11 d         -11.523 206.328 113.233  0.00  0.00     0.037 C 
BRANCH  14  16
ATOM     16  C9   11 d         -13.810 206.871 112.394  0.00  0.00    -0.036 A 
ATOM     17  C10  11 d         -13.251 206.872 111.098  0.00  0.00     0.009 A 
ATOM     18  C11  11 d         -14.076 206.893 109.963  0.00  0.00     0.001 A 
ATOM     19  C12  11 d         -15.469 206.943 110.105  0.00  0.00     0.000 A 
ATOM     20  C13  11 d         -16.038 206.982 111.384  0.00  0.00     0.001 A 
ATOM     21  C14  11 d         -15.215 206.959 112.521  0.00  0.00     0.009 A 
ENDBRANCH  14  16
ENDBRANCH   3  14
TORSDOF 4
ENDMDL
MODEL 5
REMARK VINA RESULT:      -7.7      4.263      7.264
REMARK  4 active torsions:
REMARK  status: ('A' for Active; 'I' for Inactive)
REMARK    1  A    between atoms: C1_1  and  C2_2 
REMARK       I    between atoms: C1_1  and  N2_12 
REMARK    2  A    between atoms: C4_4  and  N1_5 
REMARK    3  A    between atoms: N2_12  and  C8_13 
REMARK    4  A    between atoms: C8_13  and  C9_14 
ROOT
ATOM      1  C1   11 d         -13.308 206.376 116.235  0.00  0.00     0.252 C 
ATOM      2  O3   11 d         -12.608 207.404 116.544  0.00  0.00    -0.268 OA
ATOM      3  N2   11 d         -13.491 206.029 114.863  0.00  0.00    -0.349 N 
ATOM      4  H5   11 d         -14.073 205.160 114.619  0.00  0.00     0.163 HD
ENDROOT
BRANCH   1   5
ATOM      5  C2   11 d         -13.915 205.562 117.324  0.00  0.00     0.034 A 
ATOM      6  C3   11 d         -14.760 204.479 117.005  0.00  0.00     0.053 A 
ATOM      7  C4   11 d         -15.378 203.701 118.015  0.00  0.00     0.103 A 
ATOM      8  C5   11 d         -15.099 204.018 119.363  0.00  0.00     0.036 A 
ATOM      9  C6   11 d         -14.247 205.082 119.688  0.00  0.00     0.003 A 
ATOM     10  C7   11 d         -13.661 205.853 118.678  0.00  0.00     0.017 A 
BRANCH   7  11
ATOM     11  N1   11 d         -16.240 202.647 117.695  0.00  0.00    -0.116 N 
ATOM     12  O1   11 d         -17.168 202.833 117.053  0.00  0.00    -0.532 OA
ATOM     13  O2   11 d         -16.144 201.536 118.287  0.00  0.00    -0.532 OA
ENDBRANCH   7  11
ENDBRANCH   1   5
BRANCH   3  14
ATOM     14  C8   11 d         -12.900 206.827 113.739  0.00  0.00     0.114 C 
ATOM     15  C15  11 d         -11.546 206.226 113.357  0.00  0.00     0.037 C 
BRANCH  14  16
ATOM     16  C9   11 d         -13.802 206.887 112.516  0.00  0.00    -0.036 A 
ATOM     17  C10  11 d         -15.201 206.945 112.693  0.00  0.00     0.009 A 
ATOM     18  C11  11 d         -16.062 206.943 111.585  0.00  0.00     0.001 A 
ATOM     19  C12  11 d         -15.541 206.854 110.287  0.00  0.00     0.000 A 
ATOM     20  C13  11 d         -14.157 206.757 110.097  0.00  0.00     0.001 A 
ATOM     21  C14  11 d         -13.293 206.760 111.204  0.00  0.00     0.009 A 
ENDBRANCH  14  16
ENDBRANCH   3  14
TORSDOF 4
ENDMDL
MODEL 6
REMARK VINA RESULT:      -7.6      4.409      6.752
REMARK  4 active torsions:
REMARK  status: ('A' for Active; 'I' for Inactive)
REMARK    1  A    between atoms: C1_1  and  C2_2 
REMARK       I    between atoms: C1_1  and  N2_12 
REMARK    2  A    between atoms: C4_4  and  N1_5 
REMARK    3  A    between atoms: N2_12  and  C8_13 
REMARK    4  A    between atoms: C8_13  and  C9_14 
ROOT
ATOM      1  C1   11 d         -12.688 205.889 115.229  0.00  0.00     0.252 C 
ATOM      2  O3   11 d         -11.507 205.590 115.628  0.00  0.00    -0.268 OA
ATOM      3  N2   11 d         -13.769 205.902 116.161  0.00  0.00    -0.349 N 
ATOM      4  H5   11 d         -14.751 206.163 115.815  0.00  0.00     0.163 HD
ENDROOT
BRANCH   1   5
ATOM      5  C2   11 d         -12.903 206.223 113.794  0.00  0.00     0.034 A 
ATOM      6  C3   11 d         -14.214 206.335 113.287  0.00  0.00     0.053 A 
ATOM      7  C4   11 d         -14.457 206.621 111.921  0.00  0.00     0.103 A 
ATOM      8  C5   11 d         -13.343 206.828 111.077  0.00  0.00     0.036 A 
ATOM      9  C6   11 d         -12.037 206.735 111.577  0.00  0.00     0.003 A 
ATOM     10  C7   11 d         -11.816 206.430 112.924  0.00  0.00     0.017 A 
BRANCH   7  11
ATOM     11  N1   11 d         -15.758 206.701 111.415  0.00  0.00    -0.116 N 
ATOM     12  O1   11 d         -15.936 206.774 110.287  0.00  0.00    -0.532 OA
ATOM     13  O2   11 d         -16.734 206.925 112.183  0.00  0.00    -0.532 OA
ENDBRANCH   7  11
ENDBRANCH   1   5
BRANCH   3  14
ATOM     14  C8   11 d         -13.592 205.567 117.613  0.00  0.00     0.114 C 
ATOM     15  C15  11 d         -13.825 206.827 118.448  0.00  0.00     0.037 C 
BRANCH  14  16
ATOM     16  C9   11 d         -14.519 204.458 118.082  0.00  0.00    -0.036 A 
ATOM     17  C10  11 d         -15.061 203.563 117.134  0.00  0.00     0.009 A 
ATOM     18  C11  11 d         -15.964 202.565 117.528  0.00  0.00     0.001 A 
ATOM     19  C12  11 d         -16.363 202.463 118.868  0.00  0.00     0.000 A 
ATOM     20  C13  11 d         -15.864 203.368 119.814  0.00  0.00     0.001 A 
ATOM     21  C14  11 d         -14.959 204.366 119.422  0.00  0.00     0.009 A 
ENDBRANCH  14  16
ENDBRANCH   3  14
TORSDOF 4
ENDMDL
MODEL 7
REMARK VINA RESULT:      -7.5      4.191      5.975
REMARK  4 active torsions:
REMARK  status: ('A' for Active; 'I' for Inactive)
REMARK    1  A    between atoms: C1_1  and  C2_2 
REMARK       I    between atoms: C1_1  and  N2_12 
REMARK    2  A    between atoms: C4_4  and  N1_5 
REMARK    3  A    between atoms: N2_12  and  C8_13 
REMARK    4  A    between atoms: C8_13  and  C9_14 
ROOT
ATOM      1  C1   11 d         -12.703 205.860 114.799  0.00  0.00     0.252 C 
ATOM      2  O3   11 d         -11.498 205.897 115.235  0.00  0.00    -0.268 OA
ATOM      3  N2   11 d         -13.779 205.627 115.707  0.00  0.00    -0.349 N 
ATOM      4  H5   11 d         -14.783 205.607 115.329  0.00  0.00     0.163 HD
ENDROOT
BRANCH   1   5
ATOM      5  C2   11 d         -12.951 206.066 113.346  0.00  0.00     0.034 A 
ATOM      6  C3   11 d         -11.995 206.741 112.558  0.00  0.00     0.053 A 
ATOM      7  C4   11 d         -12.211 206.981 111.179  0.00  0.00     0.103 A 
ATOM      8  C5   11 d         -13.403 206.494 110.597  0.00  0.00     0.036 A 
ATOM      9  C6   11 d         -14.350 205.808 111.369  0.00  0.00     0.003 A 
ATOM     10  C7   11 d         -14.130 205.598 112.735  0.00  0.00     0.017 A 
BRANCH   7  11
ATOM     11  N1   11 d         -11.275 207.677 110.407  0.00  0.00    -0.116 N 
ATOM     12  O1   11 d         -11.356 207.682 109.265  0.00  0.00    -0.532 OA
ATOM     13  O2   11 d         -10.211 208.113 110.926  0.00  0.00    -0.532 OA
ENDBRANCH   7  11
ENDBRANCH   1   5
BRANCH   3  14
ATOM     14  C8   11 d         -13.567 205.410 117.177  0.00  0.00     0.114 C 
ATOM     15  C15  11 d         -13.641 206.758 117.897  0.00  0.00     0.037 C 
BRANCH  14  16
ATOM     16  C9   11 d         -14.572 204.444 117.784  0.00  0.00    -0.036 A 
ATOM     17  C10  11 d         -14.784 204.456 119.179  0.00  0.00     0.009 A 
ATOM     18  C11  11 d         -15.662 203.539 119.776  0.00  0.00     0.001 A 
ATOM     19  C12  11 d         -16.317 202.578 118.994  0.00  0.00     0.000 A 
ATOM     20  C13  11 d         -16.087 202.528 117.613  0.00  0.00     0.001 A 
ATOM     21  C14  11 d         -15.211 203.446 117.013  0.00  0.00     0.009 A 
ENDBRANCH  14  16
ENDBRANCH   3  14
TORSDOF 4
ENDMDL
MODEL 8
REMARK VINA RESULT:      -7.5      2.913      3.921
REMARK  4 active torsions:
REMARK  status: ('A' for Active; 'I' for Inactive)
REMARK    1  A    between atoms: C1_1  and  C2_2 
REMARK       I    between atoms: C1_1  and  N2_12 
REMARK    2  A    between atoms: C4_4  and  N1_5 
REMARK    3  A    between atoms: N2_12  and  C8_13 
REMARK    4  A    between atoms: C8_13  and  C9_14 
ROOT
ATOM      1  C1   11 d         -12.409 207.599 114.990  0.00  0.00     0.252 C 
ATOM      2  O3   11 d         -12.870 208.790 114.874  0.00  0.00    -0.268 OA
ATOM      3  N2   11 d         -12.334 206.753 113.844  0.00  0.00    -0.349 N 
ATOM      4  H5   11 d         -11.937 205.761 113.954  0.00  0.00     0.163 HD
ENDROOT
BRANCH   1   5
ATOM      5  C2   11 d         -11.956 207.128 116.328  0.00  0.00     0.034 A 
ATOM      6  C3   11 d         -10.902 207.793 116.988  0.00  0.00     0.053 A 
ATOM      7  C4   11 d         -10.424 207.355 118.248  0.00  0.00     0.103 A 
ATOM      8  C5   11 d         -11.058 206.245 118.850  0.00  0.00     0.036 A 
ATOM      9  C6   11 d         -12.117 205.589 118.208  0.00  0.00     0.003 A 
ATOM     10  C7   11 d         -12.562 206.023 116.954  0.00  0.00     0.017 A 
BRANCH   7  11
ATOM     11  N1   11 d          -9.359 207.998 118.885  0.00  0.00    -0.116 N 
ATOM     12  O1   11 d          -9.554 208.874 119.595  0.00  0.00    -0.532 OA
ATOM     13  O2   11 d          -8.169 207.785 118.523  0.00  0.00    -0.532 OA
ENDBRANCH   7  11
ENDBRANCH   1   5
BRANCH   3  14
ATOM     14  C8   11 d         -12.785 207.190 112.482  0.00  0.00     0.114 C 
ATOM     15  C15  11 d         -11.848 206.594 111.429  0.00  0.00     0.037 C 
BRANCH  14  16
ATOM     16  C9   11 d         -14.221 206.796 112.178  0.00  0.00    -0.036 A 
ATOM     17  C10  11 d         -14.754 207.063 110.898  0.00  0.00     0.009 A 
ATOM     18  C11  11 d         -16.093 206.763 110.605  0.00  0.00     0.001 A 
ATOM     19  C12  11 d         -16.927 206.220 111.593  0.00  0.00     0.000 A 
ATOM     20  C13  11 d         -16.422 205.985 112.878  0.00  0.00     0.001 A 
ATOM     21  C14  11 d         -15.083 206.282 113.173  0.00  0.00     0.009 A 
ENDBRANCH  14  16
ENDBRANCH   3  14
TORSDOF 4
ENDMDL
MODEL 9
REMARK VINA RESULT:      -7.3      3.377      8.253
REMARK  4 active torsions:
REMARK  status: ('A' for Active; 'I' for Inactive)
REMARK    1  A    between atoms: C1_1  and  C2_2 
REMARK       I    between atoms: C1_1  and  N2_12 
REMARK    2  A    between atoms: C4_4  and  N1_5 
REMARK    3  A    between atoms: N2_12  and  C8_13 
REMARK    4  A    between atoms: C8_13  and  C9_14 
ROOT
ATOM      1  C1   11 d          -9.238 208.442 112.888  0.00  0.00     0.252 C 
ATOM      2  O3   11 d          -9.143 209.349 111.986  0.00  0.00    -0.268 OA
ATOM      3  N2   11 d          -8.161 208.235 113.802  0.00  0.00    -0.349 N 
ATOM      4  H5   11 d          -8.259 207.478 114.557  0.00  0.00     0.163 HD
ENDROOT
BRANCH   1   5
ATOM      5  C2   11 d         -10.480 207.625 112.961  0.00  0.00     0.034 A 
ATOM      6  C3   11 d         -11.301 207.490 111.822  0.00  0.00     0.053 A 
ATOM      7  C4   11 d         -12.505 206.745 111.863  0.00  0.00     0.103 A 
ATOM      8  C5   11 d         -12.851 206.105 113.074  0.00  0.00     0.036 A 
ATOM      9  C6   11 d         -12.032 206.220 114.205  0.00  0.00     0.003 A 
ATOM     10  C7   11 d         -10.856 206.977 114.153  0.00  0.00     0.017 A 
BRANCH   7  11
ATOM     11  N1   11 d         -13.333 206.639 110.740  0.00  0.00    -0.116 N 
ATOM     12  O1   11 d         -14.153 205.842 110.700  0.00  0.00    -0.532 OA
ATOM     13  O2   11 d         -13.051 207.251 109.674  0.00  0.00    -0.532 OA
ENDBRANCH   7  11
ENDBRANCH   1   5
BRANCH   3  14
ATOM     14  C8   11 d          -6.893 209.035 113.756  0.00  0.00     0.114 C 
ATOM     15  C15  11 d          -6.939 210.107 114.847  0.00  0.00     0.037 C 
BRANCH  14  16
ATOM     16  C9   11 d          -5.647 208.181 113.923  0.00  0.00    -0.036 A 
ATOM     17  C10  11 d          -5.398 207.560 115.166  0.00  0.00     0.009 A 
ATOM     18  C11  11 d          -4.228 206.812 115.369  0.00  0.00     0.001 A 
ATOM     19  C12  11 d          -3.277 206.698 114.345  0.00  0.00     0.000 A 
ATOM     20  C13  11 d          -3.492 207.342 113.120  0.00  0.00     0.001 A 
ATOM     21  C14  11 d          -4.662 208.088 112.914  0.00  0.00     0.009 A 
ENDBRANCH  14  16
ENDBRANCH   3  14
TORSDOF 4
ENDMDL
MODEL 10
REMARK VINA RESULT:      -7.3      2.934      4.472
REMARK  4 active torsions:
REMARK  status: ('A' for Active; 'I' for Inactive)
REMARK    1  A    between atoms: C1_1  and  C2_2 
REMARK       I    between atoms: C1_1  and  N2_12 
REMARK    2  A    between atoms: C4_4  and  N1_5 
REMARK    3  A    between atoms: N2_12  and  C8_13 
REMARK    4  A    between atoms: C8_13  and  C9_14 
ROOT
ATOM      1  C1   11 d         -11.392 207.943 114.361  0.00  0.00     0.252 C 
ATOM      2  O3   11 d         -10.676 208.723 113.638  0.00  0.00    -0.268 OA
ATOM      3  N2   11 d         -12.460 207.206 113.765  0.00  0.00    -0.349 N 
ATOM      4  H5   11 d         -13.045 206.550 114.381  0.00  0.00     0.163 HD
ENDROOT
BRANCH   1   5
ATOM      5  C2   11 d         -11.087 207.821 115.813  0.00  0.00     0.034 A 
ATOM      6  C3   11 d         -11.968 207.118 116.660  0.00  0.00     0.053 A 
ATOM      7  C4   11 d         -11.726 207.008 118.051  0.00  0.00     0.103 A 
ATOM      8  C5   11 d         -10.551 207.596 118.571  0.00  0.00     0.036 A 
ATOM      9  C6   11 d          -9.661 208.281 117.733  0.00  0.00     0.003 A 
ATOM     10  C7   11 d          -9.927 208.399 116.364  0.00  0.00     0.017 A 
BRANCH   7  11
ATOM     11  N1   11 d         -12.618 206.336 118.894  0.00  0.00    -0.116 N 
ATOM     12  O1   11 d         -12.322 206.092 119.972  0.00  0.00    -0.532 OA
ATOM     13  O2   11 d         -13.655 205.790 118.428  0.00  0.00    -0.532 OA
ENDBRANCH   7  11
ENDBRANCH   1   5
BRANCH   3  14
ATOM     14  C8   11 d         -12.800 207.306 112.308  0.00  0.00     0.114 C 
ATOM     15  C15  11 d         -11.800 206.473 111.503  0.00  0.00     0.037 C 
BRANCH  14  16
ATOM     16  C9   11 d         -14.217 206.852 111.998  0.00  0.00    -0.036 A 
ATOM     17  C10  11 d         -14.822 207.254 110.787  0.00  0.00     0.009 A 
ATOM     18  C11  11 d         -16.148 206.900 110.498  0.00  0.00     0.001 A 
ATOM     19  C12  11 d         -16.899 206.164 111.425  0.00  0.00     0.000 A 
ATOM     20  C13  11 d         -16.326 205.791 112.647  0.00  0.00     0.001 A 
ATOM     21  C14  11 d         -14.999 206.143 112.938  0.00  0.00     0.009 A 
ENDBRANCH  14  16
ENDBRANCH   3  14
TORSDOF 4
ENDMDL
