MODEL 1
REMARK VINA RESULT:      -8.3      0.000      0.000
REMARK  3 active torsions:
REMARK  status: ('A' for Active; 'I' for Inactive)
REMARK    1  A    between atoms: C1_1  and  C2_2 
REMARK       I    between atoms: C1_1  and  N2_9 
REMARK    2  A    between atoms: N2_9  and  N3_10 
REMARK    3  A    between atoms: C7_11  and  C8_12 
ROOT
ATOM      1  N3   11 d         -10.600 208.089 113.008  0.00  0.00    -0.183 NA
ATOM      2  C7   11 d         -11.214 206.937 112.912  0.00  0.00     0.151 C 
ENDROOT
BRANCH   1   3
ATOM      3  N2   11 d          -9.327 208.101 113.596  0.00  0.00    -0.243 N 
ATOM      4  C1   11 d          -8.404 209.103 113.173  0.00  0.00     0.271 C 
ATOM      5  O1   11 d          -8.769 209.947 112.277  0.00  0.00    -0.266 OA
ATOM      6  H5   11 d          -9.068 207.369 114.338  0.00  0.00     0.192 HD
BRANCH   4   7
ATOM      7  C2   11 d          -7.025 209.202 113.738  0.00  0.00     0.036 A 
ATOM      8  C3   11 d          -5.968 208.498 113.119  0.00  0.00     0.036 A 
ATOM      9  C4   11 d          -4.672 208.579 113.645  0.00  0.00     0.117 A 
ATOM     10  N1   11 d          -4.430 209.343 114.747  0.00  0.00    -0.273 NA
ATOM     11  C5   11 d          -5.422 210.045 115.365  0.00  0.00     0.117 A 
ATOM     12  C6   11 d          -6.733 209.990 114.873  0.00  0.00     0.036 A 
ENDBRANCH   4   7
ENDBRANCH   1   3
BRANCH   2  13
ATOM     13  C8   11 d         -12.561 206.806 112.289  0.00  0.00     0.003 A 
ATOM     14  C9   11 d         -12.835 206.975 110.895  0.00  0.00     0.025 A 
ATOM     15 Br1   11 d         -11.516 207.464 109.562  0.00  0.00    -0.050 Br
ATOM     16  C10  11 d         -14.146 206.797 110.407  0.00  0.00     0.059 A 
ATOM     17  C11  11 d         -15.165 206.470 111.302  0.00  0.00     0.106 A 
ATOM     18  C12  11 d         -14.916 206.316 112.634  0.00  0.00     0.105 A 
ATOM     19  O3   11 d         -16.507 206.216 110.982  0.00  0.00    -0.323 OA
ATOM     20  O2   11 d         -16.063 205.940 113.349  0.00  0.00    -0.323 OA
ATOM     21  C14  11 d         -13.631 206.474 113.157  0.00  0.00     0.054 A 
ATOM     22  C13  11 d         -17.048 205.807 112.277  0.00  0.00     0.352 A 
ENDBRANCH   2  13
TORSDOF 3
ENDMDL
MODEL 2
REMARK VINA RESULT:      -8.2      1.815      2.501
REMARK  3 active torsions:
REMARK  status: ('A' for Active; 'I' for Inactive)
REMARK    1  A    between atoms: C1_1  and  C2_2 
REMARK       I    between atoms: C1_1  and  N2_9 
REMARK    2  A    between atoms: N2_9  and  N3_10 
REMARK    3  A    between atoms: C7_11  and  C8_12 
ROOT
ATOM      1  N3   11 d         -10.750 207.809 113.173  0.00  0.00    -0.183 NA
ATOM      2  C7   11 d         -11.252 206.601 113.141  0.00  0.00     0.151 C 
ENDROOT
BRANCH   1   3
ATOM      3  N2   11 d          -9.362 207.942 113.023  0.00  0.00    -0.243 N 
ATOM      4  C1   11 d          -8.681 208.858 113.879  0.00  0.00     0.271 C 
ATOM      5  O1   11 d          -9.358 209.524 114.744  0.00  0.00    -0.266 OA
ATOM      6  H5   11 d          -8.841 207.366 112.281  0.00  0.00     0.192 HD
BRANCH   4   7
ATOM      7  C2   11 d          -7.204 209.072 113.800  0.00  0.00     0.036 A 
ATOM      8  C3   11 d          -6.597 210.046 114.622  0.00  0.00     0.036 A 
ATOM      9  C4   11 d          -5.214 210.259 114.550  0.00  0.00     0.117 A 
ATOM     10  N1   11 d          -4.455 209.519 113.693  0.00  0.00    -0.273 NA
ATOM     11  C5   11 d          -5.003 208.563 112.893  0.00  0.00     0.117 A 
ATOM     12  C6   11 d          -6.383 208.320 112.931  0.00  0.00     0.036 A 
ENDBRANCH   4   7
ENDBRANCH   1   3
BRANCH   2  13
ATOM     13  C8   11 d         -12.714 206.346 113.271  0.00  0.00     0.003 A 
ATOM     14  C9   11 d         -13.378 206.013 114.493  0.00  0.00     0.025 A 
ATOM     15 Br1   11 d         -12.494 205.774 116.201  0.00  0.00    -0.050 Br
ATOM     16  C10  11 d         -14.775 205.821 114.507  0.00  0.00     0.059 A 
ATOM     17  C11  11 d         -15.490 205.946 113.315  0.00  0.00     0.106 A 
ATOM     18  C12  11 d         -14.864 206.254 112.143  0.00  0.00     0.105 A 
ATOM     19  O3   11 d         -16.879 205.832 113.159  0.00  0.00    -0.323 OA
ATOM     20  O2   11 d         -15.767 206.382 111.076  0.00  0.00    -0.323 OA
ATOM     21  C14  11 d         -13.484 206.461 112.087  0.00  0.00     0.054 A 
ATOM     22  C13  11 d         -17.049 206.186 111.751  0.00  0.00     0.352 A 
ENDBRANCH   2  13
TORSDOF 3
ENDMDL
MODEL 3
REMARK VINA RESULT:      -7.8      4.956      8.310
REMARK  3 active torsions:
REMARK  status: ('A' for Active; 'I' for Inactive)
REMARK    1  A    between atoms: C1_1  and  C2_2 
REMARK       I    between atoms: C1_1  and  N2_9 
REMARK    2  A    between atoms: N2_9  and  N3_10 
REMARK    3  A    between atoms: C7_11  and  C8_12 
ROOT
ATOM      1  N3   11 d         -13.915 206.200 115.491  0.00  0.00    -0.183 NA
ATOM      2  C7   11 d         -13.768 205.675 114.302  0.00  0.00     0.151 C 
ENDROOT
BRANCH   1   3
ATOM      3  N2   11 d         -14.754 205.536 116.397  0.00  0.00    -0.243 N 
ATOM      4  C1   11 d         -14.149 204.676 117.362  0.00  0.00     0.271 C 
ATOM      5  O1   11 d         -12.872 204.542 117.363  0.00  0.00    -0.266 OA
ATOM      6  H5   11 d         -15.817 205.677 116.352  0.00  0.00     0.192 HD
BRANCH   4   7
ATOM      7  C2   11 d         -14.954 203.923 118.371  0.00  0.00     0.036 A 
ATOM      8  C3   11 d         -14.966 204.356 119.715  0.00  0.00     0.036 A 
ATOM      9  C4   11 d         -15.712 203.653 120.670  0.00  0.00     0.117 A 
ATOM     10  N1   11 d         -16.433 202.557 120.299  0.00  0.00    -0.273 NA
ATOM     11  C5   11 d         -16.455 202.116 119.010  0.00  0.00     0.117 A 
ATOM     12  C6   11 d         -15.720 202.789 118.025  0.00  0.00     0.036 A 
ENDBRANCH   4   7
ENDBRANCH   1   3
BRANCH   2  13
ATOM     13  C8   11 d         -12.887 206.287 113.268  0.00  0.00     0.003 A 
ATOM     14  C9   11 d         -13.157 206.288 111.863  0.00  0.00     0.025 A 
ATOM     15 Br1   11 d         -14.691 205.444 111.033  0.00  0.00    -0.050 Br
ATOM     16  C10  11 d         -12.266 206.925 110.975  0.00  0.00     0.059 A 
ATOM     17  C11  11 d         -11.119 207.536 111.483  0.00  0.00     0.106 A 
ATOM     18  C12  11 d         -10.848 207.531 112.820  0.00  0.00     0.105 A 
ATOM     19  O3   11 d         -10.157 208.246 110.750  0.00  0.00    -0.323 OA
ATOM     20  O2   11 d          -9.677 208.240 113.127  0.00  0.00    -0.323 OA
ATOM     21  C14  11 d         -11.708 206.920 113.735  0.00  0.00     0.054 A 
ATOM     22  C13  11 d          -9.290 208.752 111.813  0.00  0.00     0.352 A 
ENDBRANCH   2  13
TORSDOF 3
ENDMDL
MODEL 4
REMARK VINA RESULT:      -7.6      5.280      7.961
REMARK  3 active torsions:
REMARK  status: ('A' for Active; 'I' for Inactive)
REMARK    1  A    between atoms: C1_1  and  C2_2 
REMARK       I    between atoms: C1_1  and  N2_9 
REMARK    2  A    between atoms: N2_9  and  N3_10 
REMARK    3  A    between atoms: C7_11  and  C8_12 
ROOT
ATOM      1  N3   11 d         -14.703 205.012 115.019  0.00  0.00    -0.183 NA
ATOM      2  C7   11 d         -14.869 206.172 114.435  0.00  0.00     0.151 C 
ENDROOT
BRANCH   1   3
ATOM      3  N2   11 d         -15.244 204.846 116.302  0.00  0.00    -0.243 N 
ATOM      4  C1   11 d         -14.347 204.558 117.374  0.00  0.00     0.271 C 
ATOM      5  O1   11 d         -13.091 204.458 117.126  0.00  0.00    -0.266 OA
ATOM      6  H5   11 d         -16.303 204.935 116.458  0.00  0.00     0.192 HD
BRANCH   4   7
ATOM      7  C2   11 d         -14.823 204.364 118.777  0.00  0.00     0.036 A 
ATOM      8  C3   11 d         -15.722 203.315 119.068  0.00  0.00     0.036 A 
ATOM      9  C4   11 d         -16.178 203.129 120.380  0.00  0.00     0.117 A 
ATOM     10  N1   11 d         -15.748 203.956 121.375  0.00  0.00    -0.273 NA
ATOM     11  C5   11 d         -14.872 204.971 121.134  0.00  0.00     0.117 A 
ATOM     12  C6   11 d         -14.393 205.193 119.836  0.00  0.00     0.036 A 
ENDBRANCH   4   7
ENDBRANCH   1   3
BRANCH   2  13
ATOM     13  C8   11 d         -14.353 206.451 113.066  0.00  0.00     0.003 A 
ATOM     14  C9   11 d         -15.159 206.505 111.886  0.00  0.00     0.025 A 
ATOM     15 Br1   11 d         -17.067 206.167 111.835  0.00  0.00    -0.050 Br
ATOM     16  C10  11 d         -14.569 206.809 110.642  0.00  0.00     0.059 A 
ATOM     17  C11  11 d         -13.194 207.040 110.580  0.00  0.00     0.106 A 
ATOM     18  C12  11 d         -12.415 206.982 111.698  0.00  0.00     0.105 A 
ATOM     19  O3   11 d         -12.458 207.395 109.440  0.00  0.00    -0.323 OA
ATOM     20  O2   11 d         -11.074 207.294 111.429  0.00  0.00    -0.323 OA
ATOM     21  C14  11 d         -12.961 206.693 112.951  0.00  0.00     0.054 A 
ATOM     22  C13  11 d         -11.130 207.628 110.006  0.00  0.00     0.352 A 
ENDBRANCH   2  13
TORSDOF 3
ENDMDL
MODEL 5
REMARK VINA RESULT:      -7.5      5.332      8.342
REMARK  3 active torsions:
REMARK  status: ('A' for Active; 'I' for Inactive)
REMARK    1  A    between atoms: C1_1  and  C2_2 
REMARK       I    between atoms: C1_1  and  N2_9 
REMARK    2  A    between atoms: N2_9  and  N3_10 
REMARK    3  A    between atoms: C7_11  and  C8_12 
ROOT
ATOM      1  N3   11 d         -13.587 205.515 115.862  0.00  0.00    -0.183 NA
ATOM      2  C7   11 d         -14.021 205.685 114.639  0.00  0.00     0.151 C 
ENDROOT
BRANCH   1   3
ATOM      3  N2   11 d         -14.482 204.981 116.801  0.00  0.00    -0.243 N 
ATOM      4  C1   11 d         -14.101 205.004 118.176  0.00  0.00     0.271 C 
ATOM      5  O1   11 d         -12.963 205.504 118.498  0.00  0.00    -0.266 OA
ATOM      6  H5   11 d         -15.420 204.569 116.480  0.00  0.00     0.192 HD
BRANCH   4   7
ATOM      7  C2   11 d         -14.982 204.461 119.253  0.00  0.00     0.036 A 
ATOM      8  C3   11 d         -15.709 203.272 119.025  0.00  0.00     0.036 A 
ATOM      9  C4   11 d         -16.543 202.759 120.028  0.00  0.00     0.117 A 
ATOM     10  N1   11 d         -16.645 203.403 121.224  0.00  0.00    -0.273 NA
ATOM     11  C5   11 d         -15.951 204.546 121.485  0.00  0.00     0.117 A 
ATOM     12  C6   11 d         -15.108 205.094 120.509  0.00  0.00     0.036 A 
ENDBRANCH   4   7
ENDBRANCH   1   3
BRANCH   2  13
ATOM     13  C8   11 d         -13.151 206.226 113.557  0.00  0.00     0.003 A 
ATOM     14  C9   11 d         -13.424 206.113 112.158  0.00  0.00     0.025 A 
ATOM     15 Br1   11 d         -14.948 205.184 111.401  0.00  0.00    -0.050 Br
ATOM     16  C10  11 d         -12.545 206.691 111.219  0.00  0.00     0.059 A 
ATOM     17  C11  11 d         -11.406 207.357 111.674  0.00  0.00     0.106 A 
ATOM     18  C12  11 d         -11.133 207.462 113.006  0.00  0.00     0.105 A 
ATOM     19  O3   11 d         -10.456 208.021 110.884  0.00  0.00    -0.323 OA
ATOM     20  O2   11 d          -9.971 208.210 113.252  0.00  0.00    -0.323 OA
ATOM     21  C14  11 d         -11.982 206.912 113.969  0.00  0.00     0.054 A 
ATOM     22  C13  11 d          -9.595 208.622 111.901  0.00  0.00     0.352 A 
ENDBRANCH   2  13
TORSDOF 3
ENDMDL
MODEL 6
REMARK VINA RESULT:      -7.5      2.830      8.898
REMARK  3 active torsions:
REMARK  status: ('A' for Active; 'I' for Inactive)
REMARK    1  A    between atoms: C1_1  and  C2_2 
REMARK       I    between atoms: C1_1  and  N2_9 
REMARK    2  A    between atoms: N2_9  and  N3_10 
REMARK    3  A    between atoms: C7_11  and  C8_12 
ROOT
ATOM      1  N3   11 d         -10.392 207.625 112.700  0.00  0.00    -0.183 NA
ATOM      2  C7   11 d          -9.493 208.396 112.142  0.00  0.00     0.151 C 
ENDROOT
BRANCH   1   3
ATOM      3  N2   11 d         -11.677 207.612 112.137  0.00  0.00    -0.243 N 
ATOM      4  C1   11 d         -12.640 206.714 112.688  0.00  0.00     0.271 C 
ATOM      5  O1   11 d         -12.296 205.956 113.666  0.00  0.00    -0.266 OA
ATOM      6  H5   11 d         -11.914 208.262 111.316  0.00  0.00     0.192 HD
BRANCH   4   7
ATOM      7  C2   11 d         -14.035 206.624 112.161  0.00  0.00     0.036 A 
ATOM      8  C3   11 d         -14.295 206.975 110.818  0.00  0.00     0.036 A 
ATOM      9  C4   11 d         -15.602 206.900 110.317  0.00  0.00     0.117 A 
ATOM     10  N1   11 d         -16.618 206.481 111.123  0.00  0.00    -0.273 NA
ATOM     11  C5   11 d         -16.403 206.124 112.420  0.00  0.00     0.117 A 
ATOM     12  C6   11 d         -15.112 206.186 112.962  0.00  0.00     0.036 A 
ENDBRANCH   4   7
ENDBRANCH   1   3
BRANCH   2  13
ATOM     13  C8   11 d          -8.093 208.473 112.645  0.00  0.00     0.003 A 
ATOM     14  C9   11 d          -7.727 208.714 114.007  0.00  0.00     0.025 A 
ATOM     15 Br1   11 d          -8.983 209.044 115.446  0.00  0.00    -0.050 Br
ATOM     16  C10  11 d          -6.368 208.736 114.379  0.00  0.00     0.059 A 
ATOM     17  C11  11 d          -5.392 208.535 113.401  0.00  0.00     0.106 A 
ATOM     18  C12  11 d          -5.731 208.314 112.099  0.00  0.00     0.105 A 
ATOM     19  O3   11 d          -4.005 208.483 113.604  0.00  0.00    -0.323 OA
ATOM     20  O2   11 d          -4.607 208.087 111.289  0.00  0.00    -0.323 OA
ATOM     21  C14  11 d          -7.065 208.275 111.690  0.00  0.00     0.054 A 
ATOM     22  C13  11 d          -3.525 208.122 112.271  0.00  0.00     0.352 A 
ENDBRANCH   2  13
TORSDOF 3
ENDMDL
MODEL 7
REMARK VINA RESULT:      -7.4      2.200      2.677
REMARK  3 active torsions:
REMARK  status: ('A' for Active; 'I' for Inactive)
REMARK    1  A    between atoms: C1_1  and  C2_2 
REMARK       I    between atoms: C1_1  and  N2_9 
REMARK    2  A    between atoms: N2_9  and  N3_10 
REMARK    3  A    between atoms: C7_11  and  C8_12 
ROOT
ATOM      1  N3   11 d         -11.076 208.049 114.264  0.00  0.00    -0.183 NA
ATOM      2  C7   11 d         -11.522 207.108 113.471  0.00  0.00     0.151 C 
ENDROOT
BRANCH   1   3
ATOM      3  N2   11 d          -9.711 208.362 114.199  0.00  0.00    -0.243 N 
ATOM      4  C1   11 d          -9.033 208.658 115.419  0.00  0.00     0.271 C 
ATOM      5  O1   11 d          -9.693 208.630 116.520  0.00  0.00    -0.266 OA
ATOM      6  H5   11 d          -9.205 208.377 113.252  0.00  0.00     0.192 HD
BRANCH   4   7
ATOM      7  C2   11 d          -7.580 209.002 115.457  0.00  0.00     0.036 A 
ATOM      8  C3   11 d          -7.050 209.892 114.497  0.00  0.00     0.036 A 
ATOM      9  C4   11 d          -5.687 210.216 114.521  0.00  0.00     0.117 A 
ATOM     10  N1   11 d          -4.876 209.679 115.475  0.00  0.00    -0.273 NA
ATOM     11  C5   11 d          -5.353 208.826 116.424  0.00  0.00     0.117 A 
ATOM     12  C6   11 d          -6.709 208.474 116.435  0.00  0.00     0.036 A 
ENDBRANCH   4   7
ENDBRANCH   1   3
BRANCH   2  13
ATOM     13  C8   11 d         -12.958 206.708 113.444  0.00  0.00     0.003 A 
ATOM     14  C9   11 d         -13.663 206.125 114.543  0.00  0.00     0.025 A 
ATOM     15 Br1   11 d         -12.871 205.689 116.257  0.00  0.00    -0.050 Br
ATOM     16  C10  11 d         -15.032 205.812 114.416  0.00  0.00     0.059 A 
ATOM     17  C11  11 d         -15.678 206.067 113.205  0.00  0.00     0.106 A 
ATOM     18  C12  11 d         -15.012 206.614 112.149  0.00  0.00     0.105 A 
ATOM     19  O3   11 d         -17.036 205.858 112.925  0.00  0.00    -0.323 OA
ATOM     20  O2   11 d         -15.852 206.835 111.047  0.00  0.00    -0.323 OA
ATOM     21  C14  11 d         -13.658 206.947 112.236  0.00  0.00     0.054 A 
ATOM     22  C13  11 d         -17.149 206.421 111.580  0.00  0.00     0.352 A 
ENDBRANCH   2  13
TORSDOF 3
ENDMDL
MODEL 8
REMARK VINA RESULT:      -7.4      3.172      3.420
REMARK  3 active torsions:
REMARK  status: ('A' for Active; 'I' for Inactive)
REMARK    1  A    between atoms: C1_1  and  C2_2 
REMARK       I    between atoms: C1_1  and  N2_9 
REMARK    2  A    between atoms: N2_9  and  N3_10 
REMARK    3  A    between atoms: C7_11  and  C8_12 
ROOT
ATOM      1  N3   11 d         -11.362 207.260 114.930  0.00  0.00    -0.183 NA
ATOM      2  C7   11 d         -11.658 207.850 113.800  0.00  0.00     0.151 C 
ENDROOT
BRANCH   1   3
ATOM      3  N2   11 d         -10.296 207.782 115.677  0.00  0.00    -0.243 N 
ATOM      4  C1   11 d         -10.268 207.516 117.078  0.00  0.00     0.271 C 
ATOM      5  O1   11 d         -11.212 206.819 117.599  0.00  0.00    -0.266 OA
ATOM      6  H5   11 d          -9.533 208.364 115.195  0.00  0.00     0.192 HD
BRANCH   4   7
ATOM      7  C2   11 d          -9.176 208.026 117.962  0.00  0.00     0.036 A 
ATOM      8  C3   11 d          -7.837 207.968 117.517  0.00  0.00     0.036 A 
ATOM      9  C4   11 d          -6.806 208.438 118.341  0.00  0.00     0.117 A 
ATOM     10  N1   11 d          -7.097 208.957 119.567  0.00  0.00    -0.273 NA
ATOM     11  C5   11 d          -8.377 209.040 120.026  0.00  0.00     0.117 A 
ATOM     12  C6   11 d          -9.438 208.579 119.234  0.00  0.00     0.036 A 
ENDBRANCH   4   7
ENDBRANCH   1   3
BRANCH   2  13
ATOM     13  C8   11 d         -12.782 207.391 112.936  0.00  0.00     0.003 A 
ATOM     14  C9   11 d         -12.684 207.147 111.530  0.00  0.00     0.025 A 
ATOM     15 Br1   11 d         -11.084 207.422 110.471  0.00  0.00    -0.050 Br
ATOM     16  C10  11 d         -13.807 206.685 110.814  0.00  0.00     0.059 A 
ATOM     17  C11  11 d         -15.010 206.485 111.492  0.00  0.00     0.106 A 
ATOM     18  C12  11 d         -15.117 206.725 112.831  0.00  0.00     0.105 A 
ATOM     19  O3   11 d         -16.204 205.992 110.946  0.00  0.00    -0.323 OA
ATOM     20  O2   11 d         -16.392 206.415 113.326  0.00  0.00    -0.323 OA
ATOM     21  C14  11 d         -14.026 207.174 113.579  0.00  0.00     0.054 A 
ATOM     22  C13  11 d         -17.048 205.879 112.134  0.00  0.00     0.352 A 
ENDBRANCH   2  13
TORSDOF 3
ENDMDL
MODEL 9
REMARK VINA RESULT:      -6.8      5.677      8.485
REMARK  3 active torsions:
REMARK  status: ('A' for Active; 'I' for Inactive)
REMARK    1  A    between atoms: C1_1  and  C2_2 
REMARK       I    between atoms: C1_1  and  N2_9 
REMARK    2  A    between atoms: N2_9  and  N3_10 
REMARK    3  A    between atoms: C7_11  and  C8_12 
ROOT
ATOM      1  N3   11 d         -13.244 205.386 116.281  0.00  0.00    -0.183 NA
ATOM      2  C7   11 d         -13.617 206.285 115.406  0.00  0.00     0.151 C 
ENDROOT
BRANCH   1   3
ATOM      3  N2   11 d         -14.213 204.899 117.169  0.00  0.00    -0.243 N 
ATOM      4  C1   11 d         -14.016 205.122 118.564  0.00  0.00     0.271 C 
ATOM      5  O1   11 d         -12.965 205.752 118.951  0.00  0.00    -0.266 OA
ATOM      6  H5   11 d         -15.072 204.374 116.796  0.00  0.00     0.192 HD
BRANCH   4   7
ATOM      7  C2   11 d         -14.990 204.645 119.591  0.00  0.00     0.036 A 
ATOM      8  C3   11 d         -15.693 203.440 119.375  0.00  0.00     0.036 A 
ATOM      9  C4   11 d         -16.614 202.987 120.330  0.00  0.00     0.117 A 
ATOM     10  N1   11 d         -16.823 203.705 121.469  0.00  0.00    -0.273 NA
ATOM     11  C5   11 d         -16.154 204.866 121.718  0.00  0.00     0.117 A 
ATOM     12  C6   11 d         -15.227 205.356 120.788  0.00  0.00     0.036 A 
ENDBRANCH   4   7
ENDBRANCH   1   3
BRANCH   2  13
ATOM     13  C8   11 d         -12.675 206.856 114.404  0.00  0.00     0.003 A 
ATOM     14  C9   11 d         -11.498 207.603 114.724  0.00  0.00     0.025 A 
ATOM     15 Br1   11 d         -10.936 208.063 116.521  0.00  0.00    -0.050 Br
ATOM     16  C10  11 d         -10.659 208.073 113.693  0.00  0.00     0.059 A 
ATOM     17  C11  11 d         -11.001 207.811 112.365  0.00  0.00     0.106 A 
ATOM     18  C12  11 d         -12.127 207.108 112.050  0.00  0.00     0.105 A 
ATOM     19  O3   11 d         -10.261 208.165 111.227  0.00  0.00    -0.323 OA
ATOM     20  O2   11 d         -12.261 206.913 110.667  0.00  0.00    -0.323 OA
ATOM     21  C14  11 d         -12.980 206.618 113.041  0.00  0.00     0.054 A 
ATOM     22  C13  11 d         -11.031 207.523 110.163  0.00  0.00     0.352 A 
ENDBRANCH   2  13
TORSDOF 3
ENDMDL
MODEL 10
REMARK VINA RESULT:      -6.8      5.922      7.749
REMARK  3 active torsions:
REMARK  status: ('A' for Active; 'I' for Inactive)
REMARK    1  A    between atoms: C1_1  and  C2_2 
REMARK       I    between atoms: C1_1  and  N2_9 
REMARK    2  A    between atoms: N2_9  and  N3_10 
REMARK    3  A    between atoms: C7_11  and  C8_12 
ROOT
ATOM      1  N3   11 d         -13.888 205.679 116.176  0.00  0.00    -0.183 NA
ATOM      2  C7   11 d         -13.332 205.361 117.317  0.00  0.00     0.151 C 
ENDROOT
BRANCH   1   3
ATOM      3  N2   11 d         -13.050 205.824 115.061  0.00  0.00    -0.243 N 
ATOM      4  C1   11 d         -13.168 207.017 114.287  0.00  0.00     0.271 C 
ATOM      5  O1   11 d         -14.031 207.902 114.634  0.00  0.00    -0.266 OA
ATOM      6  H5   11 d         -12.347 205.052 114.809  0.00  0.00     0.192 HD
BRANCH   4   7
ATOM      7  C2   11 d         -12.321 207.268 113.082  0.00  0.00     0.036 A 
ATOM      8  C3   11 d         -12.745 206.792 111.822  0.00  0.00     0.036 A 
ATOM      9  C4   11 d         -11.955 207.017 110.687  0.00  0.00     0.117 A 
ATOM     10  N1   11 d         -10.783 207.703 110.798  0.00  0.00    -0.273 NA
ATOM     11  C5   11 d         -10.346 208.188 111.995  0.00  0.00     0.117 A 
ATOM     12  C6   11 d         -11.105 207.982 113.155  0.00  0.00     0.036 A 
ENDBRANCH   4   7
ENDBRANCH   1   3
BRANCH   2  13
ATOM     13  C8   11 d         -14.128 205.162 118.560  0.00  0.00     0.003 A 
ATOM     14  C9   11 d         -15.060 204.098 118.770  0.00  0.00     0.025 A 
ATOM     15 Br1   11 d         -15.508 202.745 117.456  0.00  0.00    -0.050 Br
ATOM     16  C10  11 d         -15.740 203.988 120.001  0.00  0.00     0.059 A 
ATOM     17  C11  11 d         -15.500 204.936 120.996  0.00  0.00     0.106 A 
ATOM     18  C12  11 d         -14.620 205.960 120.802  0.00  0.00     0.105 A 
ATOM     19  O3   11 d         -16.053 204.951 122.285  0.00  0.00    -0.323 OA
ATOM     20  O2   11 d         -14.487 206.769 121.941  0.00  0.00    -0.323 OA
ATOM     21  C14  11 d         -13.920 206.099 119.602  0.00  0.00     0.054 A 
ATOM     22  C13  11 d         -15.345 206.073 122.898  0.00  0.00     0.352 A 
ENDBRANCH   2  13
TORSDOF 3
ENDMDL
