MODEL 1
REMARK VINA RESULT:      -7.8      0.000      0.000
REMARK  1 active torsions:
REMARK  status: ('A' for Active; 'I' for Inactive)
REMARK    1  A    between atoms: C7_8  and  S1_10 
ROOT
ATOM      1  C1   11 d         -14.013 206.012 113.916  0.00  0.00     0.105 A 
ATOM      2  C2   11 d         -14.482 206.315 112.630  0.00  0.00     0.006 A 
ATOM      3  C3   11 d         -13.515 206.681 111.644  0.00  0.00    -0.024 A 
ATOM      4  C4   11 d         -12.137 206.728 111.982  0.00  0.00     0.015 A 
ATOM      5  C5   11 d         -11.708 206.415 113.290  0.00  0.00     0.040 A 
ATOM      6  C6   11 d         -12.677 206.060 114.230  0.00  0.00     0.108 A 
ATOM      7  O1   11 d         -12.478 205.738 115.478  0.00  0.00    -0.284 OA
ATOM      8  C7   11 d         -13.674 205.483 115.962  0.00  0.00     0.210 A 
ATOM      9  N1   11 d         -14.660 205.638 115.035  0.00  0.00    -0.215 NA
ATOM     10  C9   11 d         -13.949 206.990 110.341  0.00  0.00     0.012 A 
ATOM     11  C10  11 d         -15.314 206.939 110.020  0.00  0.00     0.001 A 
ATOM     12  C11  11 d         -16.259 206.580 110.993  0.00  0.00     0.001 A 
ATOM     13  C12  11 d         -15.848 206.268 112.297  0.00  0.00     0.014 A 
ENDROOT
BRANCH   8  14
ATOM     14  S1   11 d         -13.913 204.976 117.687  0.00  0.00    -0.089 SA
ATOM     15  C8   11 d         -14.967 203.511 117.353  0.00  0.00     0.099 C 
ENDBRANCH   8  14
TORSDOF 1
ENDMDL
MODEL 2
REMARK VINA RESULT:      -7.5      2.793      4.046
REMARK  1 active torsions:
REMARK  status: ('A' for Active; 'I' for Inactive)
REMARK    1  A    between atoms: C7_8  and  S1_10 
ROOT
ATOM      1  C1   11 d         -12.528 207.092 112.559  0.00  0.00     0.105 A 
ATOM      2  C2   11 d         -13.817 206.804 112.090  0.00  0.00     0.006 A 
ATOM      3  C3   11 d         -14.721 206.165 112.993  0.00  0.00    -0.024 A 
ATOM      4  C4   11 d         -14.302 205.844 114.311  0.00  0.00     0.015 A 
ATOM      5  C5   11 d         -12.994 206.151 114.743  0.00  0.00     0.040 A 
ATOM      6  C6   11 d         -12.135 206.776 113.837  0.00  0.00     0.108 A 
ATOM      7  O1   11 d         -10.900 207.139 114.049  0.00  0.00    -0.284 OA
ATOM      8  C7   11 d         -10.503 207.683 112.919  0.00  0.00     0.210 A 
ATOM      9  N1   11 d         -11.473 207.678 111.963  0.00  0.00    -0.215 NA
ATOM     10  C9   11 d         -16.025 205.863 112.558  0.00  0.00     0.012 A 
ATOM     11  C10  11 d         -16.427 206.186 111.253  0.00  0.00     0.001 A 
ATOM     12  C11  11 d         -15.535 206.813 110.370  0.00  0.00     0.001 A 
ATOM     13  C12  11 d         -14.231 207.122 110.784  0.00  0.00     0.014 A 
ENDROOT
BRANCH   8  14
ATOM     14  S1   11 d          -8.830 208.355 112.726  0.00  0.00    -0.089 SA
ATOM     15  C8   11 d          -8.882 209.517 114.146  0.00  0.00     0.099 C 
ENDBRANCH   8  14
TORSDOF 1
ENDMDL
MODEL 3
REMARK VINA RESULT:      -7.5      3.125      5.167
REMARK  1 active torsions:
REMARK  status: ('A' for Active; 'I' for Inactive)
REMARK    1  A    between atoms: C7_8  and  S1_10 
ROOT
ATOM      1  C1   11 d         -11.999 207.208 112.289  0.00  0.00     0.105 A 
ATOM      2  C2   11 d         -10.934 207.920 112.861  0.00  0.00     0.006 A 
ATOM      3  C3   11 d          -9.954 208.466 111.978  0.00  0.00    -0.024 A 
ATOM      4  C4   11 d         -10.077 208.279 110.576  0.00  0.00     0.015 A 
ATOM      5  C5   11 d         -11.164 207.555 110.041  0.00  0.00     0.040 A 
ATOM      6  C6   11 d         -12.106 207.035 110.931  0.00  0.00     0.108 A 
ATOM      7  O1   11 d         -13.172 206.346 110.631  0.00  0.00    -0.284 OA
ATOM      8  C7   11 d         -13.745 206.079 111.784  0.00  0.00     0.210 A 
ATOM      9  N1   11 d         -13.058 206.591 112.843  0.00  0.00    -0.215 NA
ATOM     10  C9   11 d          -8.873 209.189 112.516  0.00  0.00     0.012 A 
ATOM     11  C10  11 d          -8.763 209.367 113.904  0.00  0.00     0.001 A 
ATOM     12  C11  11 d          -9.729 208.827 114.768  0.00  0.00     0.001 A 
ATOM     13  C12  11 d         -10.814 208.104 114.251  0.00  0.00     0.014 A 
ENDROOT
BRANCH   8  14
ATOM     14  S1   11 d         -15.289 205.133 111.882  0.00  0.00    -0.089 SA
ATOM     15  C8   11 d         -16.397 206.430 111.202  0.00  0.00     0.099 C 
ENDBRANCH   8  14
TORSDOF 1
ENDMDL
MODEL 4
REMARK VINA RESULT:      -7.4      1.211      2.595
REMARK  1 active torsions:
REMARK  status: ('A' for Active; 'I' for Inactive)
REMARK    1  A    between atoms: C7_8  and  S1_10 
ROOT
ATOM      1  C1   11 d         -14.086 206.114 113.430  0.00  0.00     0.105 A 
ATOM      2  C2   11 d         -13.629 206.513 112.166  0.00  0.00     0.006 A 
ATOM      3  C3   11 d         -14.606 206.726 111.146  0.00  0.00    -0.024 A 
ATOM      4  C4   11 d         -15.984 206.533 111.430  0.00  0.00     0.015 A 
ATOM      5  C5   11 d         -16.402 206.130 112.716  0.00  0.00     0.040 A 
ATOM      6  C6   11 d         -15.423 205.931 113.691  0.00  0.00     0.108 A 
ATOM      7  O1   11 d         -15.610 205.565 114.929  0.00  0.00    -0.284 OA
ATOM      8  C7   11 d         -14.408 205.513 115.458  0.00  0.00     0.210 A 
ATOM      9  N1   11 d         -13.428 205.844 114.572  0.00  0.00    -0.215 NA
ATOM     10  C9   11 d         -14.184 207.129 109.866  0.00  0.00     0.012 A 
ATOM     11  C10  11 d         -12.818 207.317 109.598  0.00  0.00     0.001 A 
ATOM     12  C11  11 d         -11.862 207.105 110.604  0.00  0.00     0.001 A 
ATOM     13  C12  11 d         -12.263 206.703 111.886  0.00  0.00     0.014 A 
ENDROOT
BRANCH   8  14
ATOM     14  S1   11 d         -14.153 205.050 117.193  0.00  0.00    -0.089 SA
ATOM     15  C8   11 d         -15.048 203.448 117.138  0.00  0.00     0.099 C 
ENDBRANCH   8  14
TORSDOF 1
ENDMDL
MODEL 5
REMARK VINA RESULT:      -7.4      2.302      2.446
REMARK  1 active torsions:
REMARK  status: ('A' for Active; 'I' for Inactive)
REMARK    1  A    between atoms: C7_8  and  S1_10 
ROOT
ATOM      1  C1   11 d         -12.913 207.326 113.480  0.00  0.00     0.105 A 
ATOM      2  C2   11 d         -13.997 207.053 112.634  0.00  0.00     0.006 A 
ATOM      3  C3   11 d         -13.720 206.869 111.245  0.00  0.00    -0.024 A 
ATOM      4  C4   11 d         -12.387 206.966 110.766  0.00  0.00     0.015 A 
ATOM      5  C5   11 d         -11.324 207.243 111.652  0.00  0.00     0.040 A 
ATOM      6  C6   11 d         -11.628 207.417 113.004  0.00  0.00     0.108 A 
ATOM      7  O1   11 d         -10.789 207.675 113.970  0.00  0.00    -0.284 OA
ATOM      8  C7   11 d         -11.528 207.749 115.055  0.00  0.00     0.210 A 
ATOM      9  N1   11 d         -12.851 207.541 114.807  0.00  0.00    -0.215 NA
ATOM     10  C9   11 d         -14.783 206.590 110.365  0.00  0.00     0.012 A 
ATOM     11  C10  11 d         -16.097 206.497 110.851  0.00  0.00     0.001 A 
ATOM     12  C11  11 d         -16.363 206.680 112.217  0.00  0.00     0.001 A 
ATOM     13  C12  11 d         -15.317 206.958 113.109  0.00  0.00     0.014 A 
ENDROOT
BRANCH   8  14
ATOM     14  S1   11 d         -10.796 208.087 116.680  0.00  0.00    -0.089 SA
ATOM     15  C8   11 d         -12.228 207.548 117.694  0.00  0.00     0.099 C 
ENDBRANCH   8  14
TORSDOF 1
ENDMDL
MODEL 6
REMARK VINA RESULT:      -7.3      3.532      4.829
REMARK  1 active torsions:
REMARK  status: ('A' for Active; 'I' for Inactive)
REMARK    1  A    between atoms: C7_8  and  S1_10 
ROOT
ATOM      1  C1   11 d         -11.084 207.639 112.630  0.00  0.00     0.105 A 
ATOM      2  C2   11 d         -12.258 206.900 112.421  0.00  0.00     0.006 A 
ATOM      3  C3   11 d         -12.673 206.687 111.071  0.00  0.00    -0.024 A 
ATOM      4  C4   11 d         -11.907 207.216 109.999  0.00  0.00     0.015 A 
ATOM      5  C5   11 d         -10.731 207.954 110.253  0.00  0.00     0.040 A 
ATOM      6  C6   11 d         -10.351 208.144 111.583  0.00  0.00     0.108 A 
ATOM      7  O1   11 d          -9.304 208.790 112.016  0.00  0.00    -0.284 OA
ATOM      8  C7   11 d          -9.363 208.701 113.327  0.00  0.00     0.210 A 
ATOM      9  N1   11 d         -10.447 207.998 113.758  0.00  0.00    -0.215 NA
ATOM     10  C9   11 d         -13.845 205.948 110.823  0.00  0.00     0.012 A 
ATOM     11  C10  11 d         -14.594 205.431 111.891  0.00  0.00     0.001 A 
ATOM     12  C11  11 d         -14.182 205.645 113.216  0.00  0.00     0.001 A 
ATOM     13  C12  11 d         -13.017 206.378 113.484  0.00  0.00     0.014 A 
ENDROOT
BRANCH   8  14
ATOM     14  S1   11 d          -8.097 209.450 114.387  0.00  0.00    -0.089 SA
ATOM     15  C8   11 d          -6.632 208.836 113.466  0.00  0.00     0.099 C 
ENDBRANCH   8  14
TORSDOF 1
ENDMDL
MODEL 7
REMARK VINA RESULT:      -7.3      1.755      3.249
REMARK  1 active torsions:
REMARK  status: ('A' for Active; 'I' for Inactive)
REMARK    1  A    between atoms: C7_8  and  S1_10 
ROOT
ATOM      1  C1   11 d         -12.477 206.657 113.873  0.00  0.00     0.105 A 
ATOM      2  C2   11 d         -11.739 207.153 112.789  0.00  0.00     0.006 A 
ATOM      3  C3   11 d         -12.203 206.839 111.475  0.00  0.00    -0.024 A 
ATOM      4  C4   11 d         -13.372 206.051 111.303  0.00  0.00     0.015 A 
ATOM      5  C5   11 d         -14.086 205.571 112.422  0.00  0.00     0.040 A 
ATOM      6  C6   11 d         -13.607 205.896 113.693  0.00  0.00     0.108 A 
ATOM      7  O1   11 d         -14.125 205.551 114.839  0.00  0.00    -0.284 OA
ATOM      8  C7   11 d         -13.338 206.085 115.747  0.00  0.00     0.210 A 
ATOM      9  N1   11 d         -12.302 206.780 115.202  0.00  0.00    -0.215 NA
ATOM     10  C9   11 d         -11.489 207.322 110.363  0.00  0.00     0.012 A 
ATOM     11  C10  11 d         -10.335 208.100 110.547  0.00  0.00     0.001 A 
ATOM     12  C11  11 d          -9.883 208.404 111.840  0.00  0.00     0.001 A 
ATOM     13  C12  11 d         -10.581 207.933 112.961  0.00  0.00     0.014 A 
ENDROOT
BRANCH   8  14
ATOM     14  S1   11 d         -13.662 205.884 117.520  0.00  0.00    -0.089 SA
ATOM     15  C8   11 d         -11.911 205.791 118.065  0.00  0.00     0.099 C 
ENDBRANCH   8  14
TORSDOF 1
ENDMDL
MODEL 8
REMARK VINA RESULT:      -7.2      2.413      3.415
REMARK  1 active torsions:
REMARK  status: ('A' for Active; 'I' for Inactive)
REMARK    1  A    between atoms: C7_8  and  S1_10 
ROOT
ATOM      1  C1   11 d         -13.484 207.305 113.760  0.00  0.00     0.105 A 
ATOM      2  C2   11 d         -14.528 206.996 112.876  0.00  0.00     0.006 A 
ATOM      3  C3   11 d         -15.612 206.216 113.380  0.00  0.00    -0.024 A 
ATOM      4  C4   11 d         -15.607 205.781 114.732  0.00  0.00     0.015 A 
ATOM      5  C5   11 d         -14.537 206.114 115.589  0.00  0.00     0.040 A 
ATOM      6  C6   11 d         -13.492 206.879 115.066  0.00  0.00     0.108 A 
ATOM      7  O1   11 d         -12.426 207.287 115.697  0.00  0.00    -0.284 OA
ATOM      8  C7   11 d         -11.739 207.968 114.806  0.00  0.00     0.210 A 
ATOM      9  N1   11 d         -12.351 208.010 113.590  0.00  0.00    -0.215 NA
ATOM     10  C9   11 d         -16.678 205.888 112.522  0.00  0.00     0.012 A 
ATOM     11  C10  11 d         -16.671 206.323 111.187  0.00  0.00     0.001 A 
ATOM     12  C11  11 d         -15.602 207.089 110.697  0.00  0.00     0.001 A 
ATOM     13  C12  11 d         -14.531 207.427 111.536  0.00  0.00     0.014 A 
ENDROOT
BRANCH   8  14
ATOM     14  S1   11 d         -10.157 208.751 115.222  0.00  0.00    -0.089 SA
ATOM     15  C8   11 d         -10.126 208.278 116.996  0.00  0.00     0.099 C 
ENDBRANCH   8  14
TORSDOF 1
ENDMDL
MODEL 9
REMARK VINA RESULT:      -7.2      3.595      5.821
REMARK  1 active torsions:
REMARK  status: ('A' for Active; 'I' for Inactive)
REMARK    1  A    between atoms: C7_8  and  S1_10 
ROOT
ATOM      1  C1   11 d         -11.301 207.676 112.697  0.00  0.00     0.105 A 
ATOM      2  C2   11 d         -10.050 208.261 112.941  0.00  0.00     0.006 A 
ATOM      3  C3   11 d          -9.813 208.796 114.244  0.00  0.00    -0.024 A 
ATOM      4  C4   11 d         -10.827 208.727 115.236  0.00  0.00     0.015 A 
ATOM      5  C5   11 d         -12.073 208.130 114.949  0.00  0.00     0.040 A 
ATOM      6  C6   11 d         -12.272 207.615 113.667  0.00  0.00     0.108 A 
ATOM      7  O1   11 d         -13.346 207.028 113.215  0.00  0.00    -0.284 OA
ATOM      8  C7   11 d         -13.068 206.715 111.968  0.00  0.00     0.210 A 
ATOM      9  N1   11 d         -11.813 207.095 111.598  0.00  0.00    -0.215 NA
ATOM     10  C9   11 d          -8.568 209.388 114.526  0.00  0.00     0.012 A 
ATOM     11  C10  11 d          -7.575 209.451 113.536  0.00  0.00     0.001 A 
ATOM     12  C11  11 d          -7.813 208.923 112.258  0.00  0.00     0.001 A 
ATOM     13  C12  11 d          -9.047 208.329 111.957  0.00  0.00     0.014 A 
ENDROOT
BRANCH   8  14
ATOM     14  S1   11 d         -14.270 205.861 110.913  0.00  0.00    -0.089 SA
ATOM     15  C8   11 d         -14.842 207.333 109.977  0.00  0.00     0.099 C 
ENDBRANCH   8  14
TORSDOF 1
ENDMDL
MODEL 10
REMARK VINA RESULT:      -7.0      2.914      4.176
REMARK  1 active torsions:
REMARK  status: ('A' for Active; 'I' for Inactive)
REMARK    1  A    between atoms: C7_8  and  S1_10 
ROOT
ATOM      1  C1   11 d         -12.609 207.321 112.657  0.00  0.00     0.105 A 
ATOM      2  C2   11 d         -13.918 206.829 112.558  0.00  0.00     0.006 A 
ATOM      3  C3   11 d         -14.398 206.484 111.258  0.00  0.00    -0.024 A 
ATOM      4  C4   11 d         -13.560 206.646 110.124  0.00  0.00     0.015 A 
ATOM      5  C5   11 d         -12.247 207.146 110.267  0.00  0.00     0.040 A 
ATOM      6  C6   11 d         -11.807 207.472 111.551  0.00  0.00     0.108 A 
ATOM      7  O1   11 d         -10.637 207.941 111.884  0.00  0.00    -0.284 OA
ATOM      8  C7   11 d         -10.684 208.090 113.190  0.00  0.00     0.210 A 
ATOM      9  N1   11 d         -11.884 207.720 113.718  0.00  0.00    -0.215 NA
ATOM     10  C9   11 d         -15.707 205.985 111.121  0.00  0.00     0.012 A 
ATOM     11  C10  11 d         -16.526 205.829 112.250  0.00  0.00     0.001 A 
ATOM     12  C11  11 d         -16.049 206.170 113.525  0.00  0.00     0.001 A 
ATOM     13  C12  11 d         -14.748 206.670 113.683  0.00  0.00     0.014 A 
ENDROOT
BRANCH   8  14
ATOM     14  S1   11 d          -9.264 208.718 114.127  0.00  0.00    -0.089 SA
ATOM     15  C8   11 d          -8.339 209.415 112.703  0.00  0.00     0.099 C 
ENDBRANCH   8  14
TORSDOF 1
ENDMDL
