MODEL 1
REMARK VINA RESULT:     -10.2      0.000      0.000
REMARK  4 active torsions:
REMARK  status: ('A' for Active; 'I' for Inactive)
REMARK    1  A    between atoms: C5_5  and  N1_8 
REMARK       I    between atoms: N1_8  and  C8_9 
REMARK    2  A    between atoms: C8_9  and  C9_11 
REMARK    3  A    between atoms: C9_11  and  S1_12 
REMARK    4  A    between atoms: S1_12  and  C10_13 
ROOT
ATOM      1  C1   11 d         -11.612 207.721 112.855  0.00  0.00     0.109 A 
ATOM      2  C2   11 d         -10.255 208.125 113.318  0.00  0.00    -0.000 A 
ATOM      3  C3   11 d          -9.166 208.058 112.428  0.00  0.00     0.016 A 
ATOM      4  C4   11 d          -7.877 208.421 112.844  0.00  0.00     0.030 A 
ATOM      5  C5   11 d          -7.627 208.856 114.162  0.00  0.00     0.034 A 
ATOM      6  C6   11 d          -8.724 208.930 115.051  0.00  0.00     0.030 A 
ATOM      7  C7   11 d         -10.016 208.571 114.634  0.00  0.00     0.016 A 
ATOM      8  N3   11 d         -11.897 207.242 111.610  0.00  0.00    -0.240 NA
ATOM      9  C17  11 d         -13.224 206.967 111.515  0.00  0.00     0.075 A 
ATOM     10  C18  11 d         -13.884 207.253 112.697  0.00  0.00     0.036 A 
ATOM     11  S3   11 d         -12.881 207.769 113.673  0.00  0.00    -0.067 SA
ATOM     12  C19  11 d         -15.259 207.052 112.855  0.00  0.00     0.028 A 
ATOM     13  C20  11 d         -15.991 206.562 111.747  0.00  0.00    -0.061 A 
ATOM     14  C21  11 d         -15.309 206.232 110.546  0.00  0.00     0.009 A 
ATOM     15  C22  11 d         -13.921 206.448 110.419  0.00  0.00     0.033 A 
ATOM     16  C23  11 d         -17.450 206.236 111.898  0.00  0.00     0.048 C 
ENDROOT
BRANCH   5  17
ATOM     17  N1   11 d          -6.227 209.193 114.506  0.00  0.00    -0.327 N 
ATOM     18  C8   11 d          -5.427 208.620 115.550  0.00  0.00     0.231 C 
ATOM     19  O1   11 d          -5.884 207.709 116.323  0.00  0.00    -0.272 OA
ATOM     20  H5   11 d          -5.759 209.951 113.906  0.00  0.00     0.169 HD
BRANCH  18  21
ATOM     21  C9   11 d          -4.010 209.075 115.756  0.00  0.00     0.184 C 
BRANCH  21  22
ATOM     22  S1   11 d          -2.846 207.668 115.548  0.00  0.00    -0.094 SA
BRANCH  22  23
ATOM     23  C10  11 d          -2.656 207.934 113.771  0.00  0.00     0.136 A 
ATOM     24  N2   11 d          -3.647 207.790 112.850  0.00  0.00    -0.233 NA
ATOM     25  C11  11 d          -3.149 208.065 111.616  0.00  0.00     0.075 A 
ATOM     26  C12  11 d          -1.805 208.401 111.676  0.00  0.00     0.036 A 
ATOM     27  C16  11 d          -3.824 208.036 110.391  0.00  0.00     0.033 A 
ATOM     28  S2   11 d          -1.372 208.341 113.103  0.00  0.00    -0.061 SA
ATOM     29  C13  11 d          -1.066 208.727 110.532  0.00  0.00     0.021 A 
ATOM     30  C14  11 d          -1.735 208.704 109.292  0.00  0.00     0.002 A 
ATOM     31  C15  11 d          -3.106 208.359 109.221  0.00  0.00     0.002 A 
ENDBRANCH  22  23
ENDBRANCH  21  22
ENDBRANCH  18  21
ENDBRANCH   5  17
TORSDOF 4
ENDMDL
MODEL 2
REMARK VINA RESULT:     -10.1      2.791      5.218
REMARK  4 active torsions:
REMARK  status: ('A' for Active; 'I' for Inactive)
REMARK    1  A    between atoms: C5_5  and  N1_8 
REMARK       I    between atoms: N1_8  and  C8_9 
REMARK    2  A    between atoms: C8_9  and  C9_11 
REMARK    3  A    between atoms: C9_11  and  S1_12 
REMARK    4  A    between atoms: S1_12  and  C10_13 
ROOT
ATOM      1  C1   11 d         -11.729 207.749 112.943  0.00  0.00     0.109 A 
ATOM      2  C2   11 d         -10.393 208.223 113.400  0.00  0.00    -0.000 A 
ATOM      3  C3   11 d          -9.294 208.167 112.521  0.00  0.00     0.016 A 
ATOM      4  C4   11 d          -8.024 208.596 112.932  0.00  0.00     0.030 A 
ATOM      5  C5   11 d          -7.804 209.088 114.235  0.00  0.00     0.034 A 
ATOM      6  C6   11 d          -8.910 209.151 115.113  0.00  0.00     0.030 A 
ATOM      7  C7   11 d         -10.183 208.726 114.701  0.00  0.00     0.016 A 
ATOM      8  N3   11 d         -11.984 207.213 111.714  0.00  0.00    -0.240 NA
ATOM      9  C17  11 d         -13.299 206.882 111.619  0.00  0.00     0.075 A 
ATOM     10  C18  11 d         -13.979 207.185 112.785  0.00  0.00     0.036 A 
ATOM     11  S3   11 d         -13.006 207.776 113.749  0.00  0.00    -0.067 SA
ATOM     12  C19  11 d         -15.346 206.935 112.941  0.00  0.00     0.028 A 
ATOM     13  C20  11 d         -16.049 206.377 111.847  0.00  0.00    -0.061 A 
ATOM     14  C21  11 d         -15.344 206.031 110.664  0.00  0.00     0.009 A 
ATOM     15  C22  11 d         -13.964 206.296 110.539  0.00  0.00     0.033 A 
ATOM     16  C23  11 d         -17.495 205.999 111.999  0.00  0.00     0.048 C 
ENDROOT
BRANCH   5  17
ATOM     17  N1   11 d          -6.421 209.493 114.577  0.00  0.00    -0.327 N 
ATOM     18  C8   11 d          -5.324 208.635 114.922  0.00  0.00     0.231 C 
ATOM     19  O1   11 d          -5.455 207.363 114.967  0.00  0.00    -0.272 OA
ATOM     20  H5   11 d          -6.217 210.548 114.564  0.00  0.00     0.169 HD
BRANCH  18  21
ATOM     21  C9   11 d          -3.974 209.217 115.233  0.00  0.00     0.184 C 
BRANCH  21  22
ATOM     22  S1   11 d          -3.199 208.325 116.641  0.00  0.00    -0.094 SA
BRANCH  22  23
ATOM     23  C10  11 d          -3.738 209.542 117.862  0.00  0.00     0.136 A 
ATOM     24  N2   11 d          -2.938 210.103 118.810  0.00  0.00    -0.233 NA
ATOM     25  C11  11 d          -3.674 210.968 119.555  0.00  0.00     0.075 A 
ATOM     26  C12  11 d          -4.993 211.012 119.127  0.00  0.00     0.036 A 
ATOM     27  C16  11 d          -3.247 211.752 120.633  0.00  0.00     0.033 A 
ATOM     28  S2   11 d          -5.140 210.073 117.976  0.00  0.00    -0.061 SA
ATOM     29  C13  11 d          -5.949 211.831 119.738  0.00  0.00     0.021 A 
ATOM     30  C14  11 d          -5.531 212.627 120.823  0.00  0.00     0.002 A 
ATOM     31  C15  11 d          -4.189 212.588 121.269  0.00  0.00     0.002 A 
ENDBRANCH  22  23
ENDBRANCH  21  22
ENDBRANCH  18  21
ENDBRANCH   5  17
TORSDOF 4
ENDMDL
MODEL 3
REMARK VINA RESULT:      -9.7      2.586      5.119
REMARK  4 active torsions:
REMARK  status: ('A' for Active; 'I' for Inactive)
REMARK    1  A    between atoms: C5_5  and  N1_8 
REMARK       I    between atoms: N1_8  and  C8_9 
REMARK    2  A    between atoms: C8_9  and  C9_11 
REMARK    3  A    between atoms: C9_11  and  S1_12 
REMARK    4  A    between atoms: S1_12  and  C10_13 
ROOT
ATOM      1  C1   11 d         -11.696 207.740 112.975  0.00  0.00     0.109 A 
ATOM      2  C2   11 d         -10.357 208.206 113.432  0.00  0.00    -0.000 A 
ATOM      3  C3   11 d          -9.274 208.208 112.532  0.00  0.00     0.016 A 
ATOM      4  C4   11 d          -8.002 208.631 112.942  0.00  0.00     0.030 A 
ATOM      5  C5   11 d          -7.763 209.059 114.264  0.00  0.00     0.034 A 
ATOM      6  C6   11 d          -8.854 209.064 115.164  0.00  0.00     0.030 A 
ATOM      7  C7   11 d         -10.129 208.645 114.753  0.00  0.00     0.016 A 
ATOM      8  N3   11 d         -11.968 207.265 111.725  0.00  0.00    -0.240 NA
ATOM      9  C17  11 d         -13.280 206.924 111.637  0.00  0.00     0.075 A 
ATOM     10  C18  11 d         -13.942 207.158 112.828  0.00  0.00     0.036 A 
ATOM     11  S3   11 d         -12.959 207.711 113.804  0.00  0.00    -0.067 SA
ATOM     12  C19  11 d         -15.304 206.885 112.995  0.00  0.00     0.028 A 
ATOM     13  C20  11 d         -16.021 206.375 111.887  0.00  0.00    -0.061 A 
ATOM     14  C21  11 d         -15.334 206.098 110.676  0.00  0.00     0.009 A 
ATOM     15  C22  11 d         -13.959 206.386 110.540  0.00  0.00     0.033 A 
ATOM     16  C23  11 d         -17.459 205.972 112.045  0.00  0.00     0.048 C 
ENDROOT
BRANCH   5  17
ATOM     17  N1   11 d          -6.379 209.462 114.602  0.00  0.00    -0.327 N 
ATOM     18  C8   11 d          -5.262 208.601 114.864  0.00  0.00     0.231 C 
ATOM     19  O1   11 d          -5.373 207.327 114.827  0.00  0.00    -0.272 OA
ATOM     20  H5   11 d          -6.191 210.519 114.655  0.00  0.00     0.169 HD
BRANCH  18  21
ATOM     21  C9   11 d          -3.914 209.182 115.184  0.00  0.00     0.184 C 
BRANCH  21  22
ATOM     22  S1   11 d          -3.174 208.331 116.635  0.00  0.00    -0.094 SA
BRANCH  22  23
ATOM     23  C10  11 d          -4.461 208.893 117.770  0.00  0.00     0.136 A 
ATOM     24  N2   11 d          -5.512 208.139 118.194  0.00  0.00    -0.233 NA
ATOM     25  C11  11 d          -6.279 208.882 119.035  0.00  0.00     0.075 A 
ATOM     26  C12  11 d          -5.763 210.159 119.198  0.00  0.00     0.036 A 
ATOM     27  C16  11 d          -7.453 208.497 119.692  0.00  0.00     0.033 A 
ATOM     28  S2   11 d          -4.522 210.268 118.377  0.00  0.00    -0.061 SA
ATOM     29  C13  11 d          -6.377 211.112 120.019  0.00  0.00     0.021 A 
ATOM     30  C14  11 d          -7.559 210.736 120.688  0.00  0.00     0.002 A 
ATOM     31  C15  11 d          -8.095 209.437 120.526  0.00  0.00     0.002 A 
ENDBRANCH  22  23
ENDBRANCH  21  22
ENDBRANCH  18  21
ENDBRANCH   5  17
TORSDOF 4
ENDMDL
MODEL 4
REMARK VINA RESULT:      -9.6      7.230     12.211
REMARK  4 active torsions:
REMARK  status: ('A' for Active; 'I' for Inactive)
REMARK    1  A    between atoms: C5_5  and  N1_8 
REMARK       I    between atoms: N1_8  and  C8_9 
REMARK    2  A    between atoms: C8_9  and  C9_11 
REMARK    3  A    between atoms: C9_11  and  S1_12 
REMARK    4  A    between atoms: S1_12  and  C10_13 
ROOT
ATOM      1  C1   11 d         -12.820 206.144 115.255  0.00  0.00     0.109 A 
ATOM      2  C2   11 d         -12.957 205.900 116.719  0.00  0.00    -0.000 A 
ATOM      3  C3   11 d         -14.100 205.244 117.213  0.00  0.00     0.016 A 
ATOM      4  C4   11 d         -14.257 205.015 118.588  0.00  0.00     0.030 A 
ATOM      5  C5   11 d         -13.284 205.438 119.517  0.00  0.00     0.034 A 
ATOM      6  C6   11 d         -12.134 206.090 119.017  0.00  0.00     0.030 A 
ATOM      7  C7   11 d         -11.974 206.316 117.640  0.00  0.00     0.016 A 
ATOM      8  N3   11 d         -13.756 205.804 114.322  0.00  0.00    -0.240 NA
ATOM      9  C17  11 d         -13.324 206.166 113.085  0.00  0.00     0.075 A 
ATOM     10  C18  11 d         -12.078 206.762 113.141  0.00  0.00     0.036 A 
ATOM     11  S3   11 d         -11.645 206.799 114.568  0.00  0.00    -0.067 SA
ATOM     12  C19  11 d         -11.417 207.227 112.000  0.00  0.00     0.028 A 
ATOM     13  C20  11 d         -12.050 207.049 110.746  0.00  0.00    -0.061 A 
ATOM     14  C21  11 d         -13.346 206.471 110.691  0.00  0.00     0.009 A 
ATOM     15  C22  11 d         -13.985 206.012 111.862  0.00  0.00     0.033 A 
ATOM     16  C23  11 d         -11.427 207.619 109.504  0.00  0.00     0.048 C 
ENDROOT
BRANCH   5  17
ATOM     17  N1   11 d         -13.556 205.169 120.947  0.00  0.00    -0.327 N 
ATOM     18  C8   11 d         -14.224 206.029 121.882  0.00  0.00     0.231 C 
ATOM     19  O1   11 d         -14.670 207.177 121.538  0.00  0.00    -0.272 OA
ATOM     20  H5   11 d         -13.216 204.223 121.326  0.00  0.00     0.169 HD
BRANCH  18  21
ATOM     21  C9   11 d         -14.427 205.591 123.305  0.00  0.00     0.184 C 
BRANCH  21  22
ATOM     22  S1   11 d         -14.710 203.777 123.385  0.00  0.00    -0.094 SA
BRANCH  22  23
ATOM     23  C10  11 d         -16.269 203.860 122.477  0.00  0.00     0.136 A 
ATOM     24  N2   11 d         -16.454 203.424 121.202  0.00  0.00    -0.233 NA
ATOM     25  C11  11 d         -17.744 203.646 120.840  0.00  0.00     0.075 A 
ATOM     26  C12  11 d         -18.464 204.241 121.866  0.00  0.00     0.036 A 
ATOM     27  C16  11 d         -18.356 203.353 119.616  0.00  0.00     0.033 A 
ATOM     28  S2   11 d         -17.547 204.430 123.028  0.00  0.00    -0.061 SA
ATOM     29  C13  11 d         -19.818 204.570 121.735  0.00  0.00     0.021 A 
ATOM     30  C14  11 d         -20.446 204.277 120.508  0.00  0.00     0.002 A 
ATOM     31  C15  11 d         -19.720 203.672 119.454  0.00  0.00     0.002 A 
ENDBRANCH  22  23
ENDBRANCH  21  22
ENDBRANCH  18  21
ENDBRANCH   5  17
TORSDOF 4
ENDMDL
MODEL 5
REMARK VINA RESULT:      -9.0      3.250      4.250
REMARK  4 active torsions:
REMARK  status: ('A' for Active; 'I' for Inactive)
REMARK    1  A    between atoms: C5_5  and  N1_8 
REMARK       I    between atoms: N1_8  and  C8_9 
REMARK    2  A    between atoms: C8_9  and  C9_11 
REMARK    3  A    between atoms: C9_11  and  S1_12 
REMARK    4  A    between atoms: S1_12  and  C10_13 
ROOT
ATOM      1  C1   11 d         -12.590 207.608 114.985  0.00  0.00     0.109 A 
ATOM      2  C2   11 d         -11.558 207.866 116.028  0.00  0.00    -0.000 A 
ATOM      3  C3   11 d         -10.240 208.178 115.644  0.00  0.00     0.016 A 
ATOM      4  C4   11 d          -9.249 208.412 116.609  0.00  0.00     0.030 A 
ATOM      5  C5   11 d          -9.536 208.338 117.987  0.00  0.00     0.034 A 
ATOM      6  C6   11 d         -10.862 208.032 118.370  0.00  0.00     0.030 A 
ATOM      7  C7   11 d         -11.856 207.801 117.406  0.00  0.00     0.016 A 
ATOM      8  N3   11 d         -12.352 207.613 113.641  0.00  0.00    -0.240 NA
ATOM      9  C17  11 d         -13.502 207.340 112.970  0.00  0.00     0.075 A 
ATOM     10  C18  11 d         -14.558 207.141 113.840  0.00  0.00     0.036 A 
ATOM     11  S3   11 d         -14.047 207.298 115.232  0.00  0.00    -0.067 SA
ATOM     12  C19  11 d         -15.849 206.840 113.394  0.00  0.00     0.028 A 
ATOM     13  C20  11 d         -16.071 206.767 111.998  0.00  0.00    -0.061 A 
ATOM     14  C21  11 d         -14.979 206.933 111.106  0.00  0.00     0.009 A 
ATOM     15  C22  11 d         -13.689 207.236 111.588  0.00  0.00     0.033 A 
ATOM     16  C23  11 d         -17.416 206.350 111.474  0.00  0.00     0.048 C 
ENDROOT
BRANCH   5  17
ATOM     17  N1   11 d          -8.414 208.579 118.923  0.00  0.00    -0.327 N 
ATOM     18  C8   11 d          -7.740 207.612 119.740  0.00  0.00     0.231 C 
ATOM     19  O1   11 d          -8.072 206.377 119.731  0.00  0.00    -0.272 OA
ATOM     20  H5   11 d          -8.066 209.593 118.996  0.00  0.00     0.169 HD
BRANCH  18  21
ATOM     21  C9   11 d          -6.605 208.030 120.632  0.00  0.00     0.184 C 
BRANCH  21  22
ATOM     22  S1   11 d          -5.021 207.316 120.034  0.00  0.00    -0.094 SA
BRANCH  22  23
ATOM     23  C10  11 d          -5.254 207.910 118.344  0.00  0.00     0.136 A 
ATOM     24  N2   11 d          -5.459 209.209 117.995  0.00  0.00    -0.233 NA
ATOM     25  C11  11 d          -5.596 209.289 116.646  0.00  0.00     0.075 A 
ATOM     26  C12  11 d          -5.487 208.041 116.050  0.00  0.00     0.036 A 
ATOM     27  C16  11 d          -5.823 210.432 115.871  0.00  0.00     0.033 A 
ATOM     28  S2   11 d          -5.253 207.032 117.124  0.00  0.00    -0.061 SA
ATOM     29  C13  11 d          -5.593 207.863 114.666  0.00  0.00     0.021 A 
ATOM     30  C14  11 d          -5.820 209.008 113.874  0.00  0.00     0.002 A 
ATOM     31  C15  11 d          -5.935 210.285 114.473  0.00  0.00     0.002 A 
ENDBRANCH  22  23
ENDBRANCH  21  22
ENDBRANCH  18  21
ENDBRANCH   5  17
TORSDOF 4
ENDMDL
MODEL 6
REMARK VINA RESULT:      -8.8      2.697      3.944
REMARK  4 active torsions:
REMARK  status: ('A' for Active; 'I' for Inactive)
REMARK    1  A    between atoms: C5_5  and  N1_8 
REMARK       I    between atoms: N1_8  and  C8_9 
REMARK    2  A    between atoms: C8_9  and  C9_11 
REMARK    3  A    between atoms: C9_11  and  S1_12 
REMARK    4  A    between atoms: S1_12  and  C10_13 
ROOT
ATOM      1  C1   11 d         -11.617 207.753 112.950  0.00  0.00     0.109 A 
ATOM      2  C2   11 d         -10.274 208.185 113.427  0.00  0.00    -0.000 A 
ATOM      3  C3   11 d          -9.169 208.118 112.556  0.00  0.00     0.016 A 
ATOM      4  C4   11 d          -7.893 208.508 112.987  0.00  0.00     0.030 A 
ATOM      5  C5   11 d          -7.671 208.970 114.300  0.00  0.00     0.034 A 
ATOM      6  C6   11 d          -8.783 209.043 115.170  0.00  0.00     0.030 A 
ATOM      7  C7   11 d         -10.063 208.658 114.739  0.00  0.00     0.016 A 
ATOM      8  N3   11 d         -11.874 207.248 111.709  0.00  0.00    -0.240 NA
ATOM      9  C17  11 d         -13.196 206.951 111.598  0.00  0.00     0.075 A 
ATOM     10  C18  11 d         -13.879 207.248 112.763  0.00  0.00     0.036 A 
ATOM     11  S3   11 d         -12.900 207.797 113.747  0.00  0.00    -0.067 SA
ATOM     12  C19  11 d         -15.253 207.030 112.903  0.00  0.00     0.028 A 
ATOM     13  C20  11 d         -15.960 206.510 111.793  0.00  0.00    -0.061 A 
ATOM     14  C21  11 d         -15.254 206.169 110.609  0.00  0.00     0.009 A 
ATOM     15  C22  11 d         -13.867 206.403 110.500  0.00  0.00     0.033 A 
ATOM     16  C23  11 d         -17.417 206.165 111.926  0.00  0.00     0.048 C 
ENDROOT
BRANCH   5  17
ATOM     17  N1   11 d          -6.282 209.334 114.661  0.00  0.00    -0.327 N 
ATOM     18  C8   11 d          -5.273 208.474 115.209  0.00  0.00     0.231 C 
ATOM     19  O1   11 d          -5.501 207.238 115.449  0.00  0.00    -0.272 OA
ATOM     20  H5   11 d          -5.999 210.356 114.493  0.00  0.00     0.169 HD
BRANCH  18  21
ATOM     21  C9   11 d          -3.901 209.009 115.510  0.00  0.00     0.184 C 
BRANCH  21  22
ATOM     22  S1   11 d          -3.552 208.906 117.311  0.00  0.00    -0.094 SA
BRANCH  22  23
ATOM     23  C10  11 d          -2.984 207.194 117.224  0.00  0.00     0.136 A 
ATOM     24  N2   11 d          -3.480 206.168 117.968  0.00  0.00    -0.233 NA
ATOM     25  C11  11 d          -2.818 205.026 117.646  0.00  0.00     0.075 A 
ATOM     26  C12  11 d          -1.856 205.255 116.674  0.00  0.00     0.036 A 
ATOM     27  C16  11 d          -3.009 203.745 118.173  0.00  0.00     0.033 A 
ATOM     28  S2   11 d          -1.888 206.704 116.318  0.00  0.00    -0.061 SA
ATOM     29  C13  11 d          -1.041 204.232 116.175  0.00  0.00     0.021 A 
ATOM     30  C14  11 d          -1.225 202.936 116.697  0.00  0.00     0.002 A 
ATOM     31  C15  11 d          -2.202 202.693 117.690  0.00  0.00     0.002 A 
ENDBRANCH  22  23
ENDBRANCH  21  22
ENDBRANCH  18  21
ENDBRANCH   5  17
TORSDOF 4
ENDMDL
MODEL 7
REMARK VINA RESULT:      -8.7      8.662     13.991
REMARK  4 active torsions:
REMARK  status: ('A' for Active; 'I' for Inactive)
REMARK    1  A    between atoms: C5_5  and  N1_8 
REMARK       I    between atoms: N1_8  and  C8_9 
REMARK    2  A    between atoms: C8_9  and  C9_11 
REMARK    3  A    between atoms: C9_11  and  S1_12 
REMARK    4  A    between atoms: S1_12  and  C10_13 
ROOT
ATOM      1  C1   11 d         -12.528 206.335 115.386  0.00  0.00     0.109 A 
ATOM      2  C2   11 d         -13.052 205.868 116.699  0.00  0.00    -0.000 A 
ATOM      3  C3   11 d         -12.461 206.330 117.891  0.00  0.00     0.016 A 
ATOM      4  C4   11 d         -12.929 205.894 119.139  0.00  0.00     0.030 A 
ATOM      5  C5   11 d         -13.997 204.979 119.243  0.00  0.00     0.034 A 
ATOM      6  C6   11 d         -14.594 204.523 118.045  0.00  0.00     0.030 A 
ATOM      7  C7   11 d         -14.129 204.962 116.795  0.00  0.00     0.016 A 
ATOM      8  N3   11 d         -11.463 207.175 115.230  0.00  0.00    -0.240 NA
ATOM      9  C17  11 d         -11.245 207.400 113.907  0.00  0.00     0.075 A 
ATOM     10  C18  11 d         -12.157 206.718 113.123  0.00  0.00     0.036 A 
ATOM     11  S3   11 d         -13.072 205.963 114.027  0.00  0.00    -0.067 SA
ATOM     12  C19  11 d         -12.141 206.783 111.726  0.00  0.00     0.028 A 
ATOM     13  C20  11 d         -11.165 207.602 111.110  0.00  0.00    -0.061 A 
ATOM     14  C21  11 d         -10.204 208.272 111.912  0.00  0.00     0.009 A 
ATOM     15  C22  11 d         -10.249 208.186 113.320  0.00  0.00     0.033 A 
ATOM     16  C23  11 d         -11.043 207.626 109.612  0.00  0.00     0.048 C 
ENDROOT
BRANCH   5  17
ATOM     17  N1   11 d         -14.400 204.565 120.606  0.00  0.00    -0.327 N 
ATOM     18  C8   11 d         -15.499 205.069 121.378  0.00  0.00     0.231 C 
ATOM     19  O1   11 d         -16.276 205.979 120.927  0.00  0.00    -0.272 OA
ATOM     20  H5   11 d         -13.801 203.801 121.067  0.00  0.00     0.169 HD
BRANCH  18  21
ATOM     21  C9   11 d         -15.773 204.525 122.752  0.00  0.00     0.184 C 
BRANCH  21  22
ATOM     22  S1   11 d         -16.760 205.726 123.733  0.00  0.00    -0.094 SA
BRANCH  22  23
ATOM     23  C10  11 d         -18.212 204.654 123.806  0.00  0.00     0.136 A 
ATOM     24  N2   11 d         -18.841 204.117 122.725  0.00  0.00    -0.233 NA
ATOM     25  C11  11 d         -19.892 203.369 123.151  0.00  0.00     0.075 A 
ATOM     26  C12  11 d         -19.998 203.383 124.534  0.00  0.00     0.036 A 
ATOM     27  C16  11 d         -20.805 202.648 122.373  0.00  0.00     0.033 A 
ATOM     28  S2   11 d         -18.898 204.233 125.076  0.00  0.00    -0.061 SA
ATOM     29  C13  11 d         -21.004 202.686 125.213  0.00  0.00     0.021 A 
ATOM     30  C14  11 d         -21.928 201.953 124.440  0.00  0.00     0.002 A 
ATOM     31  C15  11 d         -21.830 201.935 123.028  0.00  0.00     0.002 A 
ENDBRANCH  22  23
ENDBRANCH  21  22
ENDBRANCH  18  21
ENDBRANCH   5  17
TORSDOF 4
ENDMDL
MODEL 8
REMARK VINA RESULT:      -8.6      8.173     11.566
REMARK  4 active torsions:
REMARK  status: ('A' for Active; 'I' for Inactive)
REMARK    1  A    between atoms: C5_5  and  N1_8 
REMARK       I    between atoms: N1_8  and  C8_9 
REMARK    2  A    between atoms: C8_9  and  C9_11 
REMARK    3  A    between atoms: C9_11  and  S1_12 
REMARK    4  A    between atoms: S1_12  and  C10_13 
ROOT
ATOM      1  C1   11 d         -16.239 205.542 122.266  0.00  0.00     0.109 A 
ATOM      2  C2   11 d         -15.488 205.715 120.991  0.00  0.00    -0.000 A 
ATOM      3  C3   11 d         -15.172 207.010 120.537  0.00  0.00     0.016 A 
ATOM      4  C4   11 d         -14.476 207.197 119.334  0.00  0.00     0.030 A 
ATOM      5  C5   11 d         -14.078 206.103 118.539  0.00  0.00     0.034 A 
ATOM      6  C6   11 d         -14.391 204.804 119.001  0.00  0.00     0.030 A 
ATOM      7  C7   11 d         -15.083 204.614 120.207  0.00  0.00     0.016 A 
ATOM      8  N3   11 d         -16.695 206.567 123.043  0.00  0.00    -0.240 NA
ATOM      9  C17  11 d         -17.339 206.069 124.131  0.00  0.00     0.075 A 
ATOM     10  C18  11 d         -17.341 204.686 124.125  0.00  0.00     0.036 A 
ATOM     11  S3   11 d         -16.622 204.226 122.902  0.00  0.00    -0.067 SA
ATOM     12  C19  11 d         -17.947 203.933 125.136  0.00  0.00     0.028 A 
ATOM     13  C20  11 d         -18.552 204.628 126.211  0.00  0.00    -0.061 A 
ATOM     14  C21  11 d         -18.585 206.048 126.198  0.00  0.00     0.009 A 
ATOM     15  C22  11 d         -17.963 206.777 125.162  0.00  0.00     0.033 A 
ATOM     16  C23  11 d         -19.301 203.868 127.268  0.00  0.00     0.048 C 
ENDROOT
BRANCH   5  17
ATOM     17  N1   11 d         -13.370 206.411 117.276  0.00  0.00    -0.327 N 
ATOM     18  C8   11 d         -12.259 207.300 117.097  0.00  0.00     0.231 C 
ATOM     19  O1   11 d         -11.752 207.947 118.077  0.00  0.00    -0.272 OA
ATOM     20  H5   11 d         -13.729 205.910 116.395  0.00  0.00     0.169 HD
BRANCH  18  21
ATOM     21  C9   11 d         -11.649 207.490 115.736  0.00  0.00     0.184 C 
BRANCH  21  22
ATOM     22  S1   11 d         -11.406 205.866 114.910  0.00  0.00    -0.094 SA
BRANCH  22  23
ATOM     23  C10  11 d         -12.783 206.108 113.767  0.00  0.00     0.136 A 
ATOM     24  N2   11 d         -14.092 205.882 114.063  0.00  0.00    -0.233 NA
ATOM     25  C11  11 d         -14.848 206.164 112.970  0.00  0.00     0.075 A 
ATOM     26  C12  11 d         -14.065 206.586 111.906  0.00  0.00     0.036 A 
ATOM     27  C16  11 d         -16.238 206.066 112.839  0.00  0.00     0.033 A 
ATOM     28  S2   11 d         -12.640 206.582 112.347  0.00  0.00    -0.061 SA
ATOM     29  C13  11 d         -14.615 206.935 110.667  0.00  0.00     0.021 A 
ATOM     30  C14  11 d         -16.014 206.844 110.523  0.00  0.00     0.002 A 
ATOM     31  C15  11 d         -16.821 206.411 111.602  0.00  0.00     0.002 A 
ENDBRANCH  22  23
ENDBRANCH  21  22
ENDBRANCH  18  21
ENDBRANCH   5  17
TORSDOF 4
ENDMDL
MODEL 9
REMARK VINA RESULT:      -8.5      8.101     11.412
REMARK  4 active torsions:
REMARK  status: ('A' for Active; 'I' for Inactive)
REMARK    1  A    between atoms: C5_5  and  N1_8 
REMARK       I    between atoms: N1_8  and  C8_9 
REMARK    2  A    between atoms: C8_9  and  C9_11 
REMARK    3  A    between atoms: C9_11  and  S1_12 
REMARK    4  A    between atoms: S1_12  and  C10_13 
ROOT
ATOM      1  C1   11 d         -17.755 203.713 121.294  0.00  0.00     0.109 A 
ATOM      2  C2   11 d         -16.598 203.991 120.399  0.00  0.00    -0.000 A 
ATOM      3  C3   11 d         -15.605 204.903 120.805  0.00  0.00     0.016 A 
ATOM      4  C4   11 d         -14.512 205.190 119.974  0.00  0.00     0.030 A 
ATOM      5  C5   11 d         -14.376 204.585 118.707  0.00  0.00     0.034 A 
ATOM      6  C6   11 d         -15.371 203.664 118.305  0.00  0.00     0.030 A 
ATOM      7  C7   11 d         -16.463 203.373 119.139  0.00  0.00     0.016 A 
ATOM      8  N3   11 d         -17.963 204.313 122.503  0.00  0.00    -0.240 NA
ATOM      9  C17  11 d         -19.108 203.838 123.061  0.00  0.00     0.075 A 
ATOM     10  C18  11 d         -19.714 202.900 122.246  0.00  0.00     0.036 A 
ATOM     11  S3   11 d         -18.879 202.741 121.021  0.00  0.00    -0.067 SA
ATOM     12  C19  11 d         -20.910 202.265 122.596  0.00  0.00     0.028 A 
ATOM     13  C20  11 d         -21.494 202.588 123.844  0.00  0.00    -0.061 A 
ATOM     14  C21  11 d         -20.893 203.579 124.664  0.00  0.00     0.009 A 
ATOM     15  C22  11 d         -19.685 204.200 124.282  0.00  0.00     0.033 A 
ATOM     16  C23  11 d         -22.828 202.008 124.220  0.00  0.00     0.048 C 
ENDROOT
BRANCH   5  17
ATOM     17  N1   11 d         -13.199 204.974 117.898  0.00  0.00    -0.327 N 
ATOM     18  C8   11 d         -13.013 206.193 117.165  0.00  0.00     0.231 C 
ATOM     19  O1   11 d         -13.906 207.108 117.145  0.00  0.00    -0.272 OA
ATOM     20  H5   11 d         -12.394 204.263 117.856  0.00  0.00     0.169 HD
BRANCH  18  21
ATOM     21  C9   11 d         -11.742 206.432 116.399  0.00  0.00     0.184 C 
BRANCH  21  22
ATOM     22  S1   11 d         -11.755 208.105 115.639  0.00  0.00    -0.094 SA
BRANCH  22  23
ATOM     23  C10  11 d         -12.663 207.562 114.174  0.00  0.00     0.136 A 
ATOM     24  N2   11 d         -13.886 208.025 113.799  0.00  0.00    -0.233 NA
ATOM     25  C11  11 d         -14.266 207.396 112.656  0.00  0.00     0.075 A 
ATOM     26  C12  11 d         -13.305 206.491 112.232  0.00  0.00     0.036 A 
ATOM     27  C16  11 d         -15.451 207.570 111.933  0.00  0.00     0.033 A 
ATOM     28  S2   11 d         -12.170 206.528 113.200  0.00  0.00    -0.061 SA
ATOM     29  C13  11 d         -13.465 205.719 111.075  0.00  0.00     0.021 A 
ATOM     30  C14  11 d         -14.654 205.886 110.337  0.00  0.00     0.002 A 
ATOM     31  C15  11 d         -15.642 206.806 110.763  0.00  0.00     0.002 A 
ENDBRANCH  22  23
ENDBRANCH  21  22
ENDBRANCH  18  21
ENDBRANCH   5  17
TORSDOF 4
ENDMDL
MODEL 10
REMARK VINA RESULT:      -8.1      7.935     10.959
REMARK  4 active torsions:
REMARK  status: ('A' for Active; 'I' for Inactive)
REMARK    1  A    between atoms: C5_5  and  N1_8 
REMARK       I    between atoms: N1_8  and  C8_9 
REMARK    2  A    between atoms: C8_9  and  C9_11 
REMARK    3  A    between atoms: C9_11  and  S1_12 
REMARK    4  A    between atoms: S1_12  and  C10_13 
ROOT
ATOM      1  C1   11 d         -12.787 206.141 115.227  0.00  0.00     0.109 A 
ATOM      2  C2   11 d         -12.962 205.871 116.682  0.00  0.00    -0.000 A 
ATOM      3  C3   11 d         -14.116 205.203 117.133  0.00  0.00     0.016 A 
ATOM      4  C4   11 d         -14.309 204.949 118.499  0.00  0.00     0.030 A 
ATOM      5  C5   11 d         -13.362 205.357 119.461  0.00  0.00     0.034 A 
ATOM      6  C6   11 d         -12.200 206.020 119.004  0.00  0.00     0.030 A 
ATOM      7  C7   11 d         -12.004 206.271 117.637  0.00  0.00     0.016 A 
ATOM      8  N3   11 d         -13.696 205.817 114.263  0.00  0.00    -0.240 NA
ATOM      9  C17  11 d         -13.232 206.202 113.045  0.00  0.00     0.075 A 
ATOM     10  C18  11 d         -11.989 206.800 113.145  0.00  0.00     0.036 A 
ATOM     11  S3   11 d         -11.595 206.811 114.584  0.00  0.00    -0.067 SA
ATOM     12  C19  11 d         -11.300 207.287 112.030  0.00  0.00     0.028 A 
ATOM     13  C20  11 d         -11.898 207.130 110.757  0.00  0.00    -0.061 A 
ATOM     14  C21  11 d         -13.191 206.551 110.657  0.00  0.00     0.009 A 
ATOM     15  C22  11 d         -13.860 206.070 111.802  0.00  0.00     0.033 A 
ATOM     16  C23  11 d         -11.244 207.725 109.543  0.00  0.00     0.048 C 
ENDROOT
BRANCH   5  17
ATOM     17  N1   11 d         -13.672 205.061 120.878  0.00  0.00    -0.327 N 
ATOM     18  C8   11 d         -14.317 205.924 121.826  0.00  0.00     0.231 C 
ATOM     19  O1   11 d         -14.704 207.101 121.507  0.00  0.00    -0.272 OA
ATOM     20  H5   11 d         -13.382 204.090 121.236  0.00  0.00     0.169 HD
BRANCH  18  21
ATOM     21  C9   11 d         -14.565 205.457 123.233  0.00  0.00     0.184 C 
BRANCH  21  22
ATOM     22  S1   11 d         -14.666 203.623 123.292  0.00  0.00    -0.094 SA
BRANCH  22  23
ATOM     23  C10  11 d         -12.954 203.427 123.834  0.00  0.00     0.136 A 
ATOM     24  N2   11 d         -11.894 204.120 123.335  0.00  0.00    -0.233 NA
ATOM     25  C11  11 d         -10.762 203.715 123.970  0.00  0.00     0.075 A 
ATOM     26  C12  11 d         -11.033 202.736 124.914  0.00  0.00     0.036 A 
ATOM     27  C16  11 d          -9.454 204.165 123.763  0.00  0.00     0.033 A 
ATOM     28  S2   11 d         -12.501 202.468 124.899  0.00  0.00    -0.061 SA
ATOM     29  C13  11 d         -10.029 202.159 125.700  0.00  0.00     0.021 A 
ATOM     30  C14  11 d          -8.706 202.606 125.503  0.00  0.00     0.002 A 
ATOM     31  C15  11 d          -8.420 203.602 124.540  0.00  0.00     0.002 A 
ENDBRANCH  22  23
ENDBRANCH  21  22
ENDBRANCH  18  21
ENDBRANCH   5  17
TORSDOF 4
ENDMDL
