MODEL 1
REMARK VINA RESULT:      -9.2      0.000      0.000
REMARK  5 active torsions:
REMARK  status: ('A' for Active; 'I' for Inactive)
REMARK    1  A    between atoms: C5_5  and  O1_6 
REMARK    2  A    between atoms: N1_21  and  C19_22 
REMARK    3  A    between atoms: C20_23  and  C21_24 
REMARK    4  A    between atoms: C21_24  and  O3_26 
REMARK    5  A    between atoms: O3_26  and  C22_27 
ROOT
ATOM      1  C1   11 d          -9.993 208.400 113.773  0.00  0.00     0.072 C 
ATOM      2  C2   11 d          -8.536 208.567 113.520  0.00  0.00    -0.003 A 
ATOM      3  C3   11 d          -7.691 208.892 114.613  0.00  0.00    -0.043 A 
ATOM      4  C4   11 d          -6.300 208.967 114.404  0.00  0.00     0.044 A 
ATOM      5  C5   11 d          -5.758 208.809 113.119  0.00  0.00     0.068 A 
ATOM      6  C7   11 d          -6.600 208.488 112.044  0.00  0.00     0.037 A 
ATOM      7  C8   11 d          -7.984 208.377 112.238  0.00  0.00     0.017 A 
ATOM      8  C9   11 d          -8.250 208.971 116.024  0.00  0.00     0.040 C 
ATOM      9  C10  11 d          -9.544 208.149 116.177  0.00  0.00     0.018 C 
ATOM     10  C11  11 d         -10.582 208.583 115.126  0.00  0.00     0.070 C 
ATOM     11  C12  11 d         -12.016 208.005 114.911  0.00  0.00     0.153 C 
ATOM     12  C13  11 d         -12.575 206.761 115.644  0.00  0.00    -0.033 A 
ATOM     13  C14  11 d         -13.929 206.414 115.390  0.00  0.00     0.012 A 
ATOM     14  C15  11 d         -14.533 205.295 115.981  0.00  0.00     0.043 A 
ATOM     15  C16  11 d         -13.809 204.497 116.867  0.00  0.00     0.116 A 
ATOM     16  F1   11 d         -14.394 203.408 117.445  0.00  0.00    -0.206 F 
ATOM     17  C17  11 d         -12.487 204.830 117.172  0.00  0.00     0.043 A 
ATOM     18  C18  11 d         -11.882 205.950 116.580  0.00  0.00     0.012 A 
ATOM     19  N1   11 d         -12.000 207.849 113.487  0.00  0.00    -0.264 N 
ATOM     20  N2   11 d         -10.837 207.991 112.888  0.00  0.00    -0.175 NA
ENDROOT
BRANCH  19  21
ATOM     21  C19  11 d         -13.094 207.567 112.676  0.00  0.00     0.033 C 
ATOM     22  C20  11 d         -12.940 206.657 111.683  0.00  0.00     0.108 C 
ATOM     23  C24  11 d         -14.398 208.258 112.992  0.00  0.00     0.070 C 
BRANCH  22  24
ATOM     24  C21  11 d         -13.961 206.201 110.709  0.00  0.00     0.284 C 
ATOM     25  O2   11 d         -14.181 206.910 109.695  0.00  0.00    -0.260 OA
BRANCH  24  26
ATOM     26  O3   11 d         -14.633 204.956 110.839  0.00  0.00    -0.318 OA
BRANCH  26  27
ATOM     27  C22  11 d         -15.437 204.945 112.044  0.00  0.00     0.174 C 
ATOM     28  C23  11 d         -16.704 205.744 111.787  0.00  0.00     0.034 C 
ENDBRANCH  26  27
ENDBRANCH  24  26
ENDBRANCH  22  24
ENDBRANCH  19  21
BRANCH   5  29
ATOM     29  O1   11 d          -4.350 208.820 112.938  0.00  0.00    -0.356 OA
ATOM     30  C6   11 d          -4.005 208.005 111.790  0.00  0.00     0.210 C 
ENDBRANCH   5  29
TORSDOF 5
ENDMDL
MODEL 2
REMARK VINA RESULT:      -8.6      3.670      8.955
REMARK  5 active torsions:
REMARK  status: ('A' for Active; 'I' for Inactive)
REMARK    1  A    between atoms: C5_5  and  O1_6 
REMARK    2  A    between atoms: N1_21  and  C19_22 
REMARK    3  A    between atoms: C20_23  and  C21_24 
REMARK    4  A    between atoms: C21_24  and  O3_26 
REMARK    5  A    between atoms: O3_26  and  C22_27 
ROOT
ATOM      1  C1   11 d          -9.302 208.573 113.752  0.00  0.00     0.072 C 
ATOM      2  C2   11 d         -10.563 207.809 113.548  0.00  0.00    -0.003 A 
ATOM      3  C3   11 d         -11.101 207.728 112.237  0.00  0.00    -0.043 A 
ATOM      4  C4   11 d         -12.245 206.936 112.015  0.00  0.00     0.044 A 
ATOM      5  C5   11 d         -12.899 206.305 113.084  0.00  0.00     0.068 A 
ATOM      6  C7   11 d         -12.362 206.392 114.377  0.00  0.00     0.037 A 
ATOM      7  C8   11 d         -11.205 207.148 114.613  0.00  0.00     0.017 A 
ATOM      8  C9   11 d         -10.352 208.324 111.057  0.00  0.00     0.040 C 
ATOM      9  C10  11 d          -8.843 208.456 111.340  0.00  0.00     0.018 C 
ATOM     10  C11  11 d          -8.609 209.261 112.632  0.00  0.00     0.070 C 
ATOM     11  C12  11 d          -7.243 209.617 113.295  0.00  0.00     0.153 C 
ATOM     12  C13  11 d          -5.874 209.065 112.827  0.00  0.00    -0.033 A 
ATOM     13  C14  11 d          -4.716 209.551 113.492  0.00  0.00     0.012 A 
ATOM     14  C15  11 d          -3.429 209.103 113.166  0.00  0.00     0.043 A 
ATOM     15  C16  11 d          -3.251 208.171 112.144  0.00  0.00     0.116 A 
ATOM     16  F1   11 d          -1.999 207.734 111.823  0.00  0.00    -0.206 F 
ATOM     17  C17  11 d          -4.362 207.700 111.440  0.00  0.00     0.043 A 
ATOM     18  C18  11 d          -5.651 208.146 111.767  0.00  0.00     0.012 A 
ATOM     19  N1   11 d          -7.540 209.278 114.655  0.00  0.00    -0.264 N 
ATOM     20  N2   11 d          -8.659 208.618 114.870  0.00  0.00    -0.175 NA
ENDROOT
BRANCH  19  21
ATOM     21  C19  11 d          -6.768 209.582 115.770  0.00  0.00     0.033 C 
ATOM     22  C20  11 d          -6.614 208.632 116.724  0.00  0.00     0.108 C 
ATOM     23  C24  11 d          -6.104 210.937 115.815  0.00  0.00     0.070 C 
BRANCH  22  24
ATOM     24  C21  11 d          -5.838 208.732 117.983  0.00  0.00     0.284 C 
ATOM     25  O2   11 d          -4.688 208.224 118.021  0.00  0.00    -0.260 OA
BRANCH  24  26
ATOM     26  O3   11 d          -6.310 209.451 119.113  0.00  0.00    -0.318 OA
BRANCH  26  27
ATOM     27  C22  11 d          -5.347 210.460 119.502  0.00  0.00     0.174 C 
ATOM     28  C23  11 d          -6.072 211.788 119.653  0.00  0.00     0.034 C 
ENDBRANCH  26  27
ENDBRANCH  24  26
ENDBRANCH  22  24
ENDBRANCH  19  21
BRANCH   5  29
ATOM     29  O1   11 d         -14.010 205.457 112.833  0.00  0.00    -0.356 OA
ATOM     30  C6   11 d         -14.239 205.372 111.404  0.00  0.00     0.210 C 
ENDBRANCH   5  29
TORSDOF 5
ENDMDL
MODEL 3
REMARK VINA RESULT:      -8.4      4.440      9.428
REMARK  5 active torsions:
REMARK  status: ('A' for Active; 'I' for Inactive)
REMARK    1  A    between atoms: C5_5  and  O1_6 
REMARK    2  A    between atoms: N1_21  and  C19_22 
REMARK    3  A    between atoms: C20_23  and  C21_24 
REMARK    4  A    between atoms: C21_24  and  O3_26 
REMARK    5  A    between atoms: O3_26  and  C22_27 
ROOT
ATOM      1  C1   11 d          -8.070 209.019 114.721  0.00  0.00     0.072 C 
ATOM      2  C2   11 d          -9.364 208.586 114.127  0.00  0.00    -0.003 A 
ATOM      3  C3   11 d          -9.465 208.498 112.714  0.00  0.00    -0.043 A 
ATOM      4  C4   11 d         -10.654 208.006 112.142  0.00  0.00     0.044 A 
ATOM      5  C5   11 d         -11.759 207.688 112.946  0.00  0.00     0.068 A 
ATOM      6  C7   11 d         -11.651 207.778 114.342  0.00  0.00     0.037 A 
ATOM      7  C8   11 d         -10.464 208.234 114.932  0.00  0.00     0.017 A 
ATOM      8  C9   11 d          -8.250 208.747 111.836  0.00  0.00     0.040 C 
ATOM      9  C10  11 d          -6.931 208.518 112.601  0.00  0.00     0.018 C 
ATOM     10  C11  11 d          -6.898 209.377 113.879  0.00  0.00     0.070 C 
ATOM     11  C12  11 d          -5.766 209.442 114.950  0.00  0.00     0.153 C 
ATOM     12  C13  11 d          -4.531 208.509 114.975  0.00  0.00    -0.033 A 
ATOM     13  C14  11 d          -3.552 208.753 115.975  0.00  0.00     0.012 A 
ATOM     14  C15  11 d          -2.406 207.957 116.105  0.00  0.00     0.043 A 
ATOM     15  C16  11 d          -2.185 206.902 115.219  0.00  0.00     0.116 A 
ATOM     16  F1   11 d          -1.069 206.126 115.341  0.00  0.00    -0.206 F 
ATOM     17  C17  11 d          -3.104 206.655 114.197  0.00  0.00     0.043 A 
ATOM     18  C18  11 d          -4.253 207.451 114.068  0.00  0.00     0.012 A 
ATOM     19  N1   11 d          -6.556 209.345 116.141  0.00  0.00    -0.264 N 
ATOM     20  N2   11 d          -7.823 209.022 115.987  0.00  0.00    -0.175 NA
ENDROOT
BRANCH  19  21
ATOM     21  C19  11 d          -6.119 209.563 117.443  0.00  0.00     0.033 C 
ATOM     22  C20  11 d          -5.652 210.794 117.766  0.00  0.00     0.108 C 
ATOM     23  C24  11 d          -6.245 208.424 118.426  0.00  0.00     0.070 C 
BRANCH  22  24
ATOM     24  C21  11 d          -5.144 211.251 119.082  0.00  0.00     0.284 C 
ATOM     25  O2   11 d          -3.998 210.883 119.443  0.00  0.00    -0.260 OA
BRANCH  24  26
ATOM     26  O3   11 d          -5.868 212.154 119.905  0.00  0.00    -0.318 OA
BRANCH  26  27
ATOM     27  C22  11 d          -4.992 212.733 120.903  0.00  0.00     0.174 C 
ATOM     28  C23  11 d          -5.502 212.339 122.280  0.00  0.00     0.034 C 
ENDBRANCH  26  27
ENDBRANCH  24  26
ENDBRANCH  22  24
ENDBRANCH  19  21
BRANCH   5  29
ATOM     29  O1   11 d         -12.925 207.131 112.360  0.00  0.00    -0.356 OA
ATOM     30  C6   11 d         -12.600 206.596 111.052  0.00  0.00     0.210 C 
ENDBRANCH   5  29
TORSDOF 5
ENDMDL
MODEL 4
REMARK VINA RESULT:      -8.0      4.291      9.008
REMARK  5 active torsions:
REMARK  status: ('A' for Active; 'I' for Inactive)
REMARK    1  A    between atoms: C5_5  and  O1_6 
REMARK    2  A    between atoms: N1_21  and  C19_22 
REMARK    3  A    between atoms: C20_23  and  C21_24 
REMARK    4  A    between atoms: C21_24  and  O3_26 
REMARK    5  A    between atoms: O3_26  and  C22_27 
ROOT
ATOM      1  C1   11 d          -7.980 208.958 114.733  0.00  0.00     0.072 C 
ATOM      2  C2   11 d          -9.263 208.551 114.099  0.00  0.00    -0.003 A 
ATOM      3  C3   11 d          -9.346 208.541 112.683  0.00  0.00    -0.043 A 
ATOM      4  C4   11 d         -10.526 208.075 112.069  0.00  0.00     0.044 A 
ATOM      5  C5   11 d         -11.639 207.707 112.841  0.00  0.00     0.068 A 
ATOM      6  C7   11 d         -11.548 207.720 114.241  0.00  0.00     0.037 A 
ATOM      7  C8   11 d         -10.371 208.149 114.870  0.00  0.00     0.017 A 
ATOM      8  C9   11 d          -8.122 208.845 111.835  0.00  0.00     0.040 C 
ATOM      9  C10  11 d          -6.812 208.582 112.603  0.00  0.00     0.018 C 
ATOM     10  C11  11 d          -6.800 209.368 113.927  0.00  0.00     0.070 C 
ATOM     11  C12  11 d          -5.681 209.381 115.014  0.00  0.00     0.153 C 
ATOM     12  C13  11 d          -4.441 208.454 115.002  0.00  0.00    -0.033 A 
ATOM     13  C14  11 d          -3.476 208.648 116.027  0.00  0.00     0.012 A 
ATOM     14  C15  11 d          -2.327 207.853 116.127  0.00  0.00     0.043 A 
ATOM     15  C16  11 d          -2.088 206.849 115.187  0.00  0.00     0.116 A 
ATOM     16  F1   11 d          -0.969 206.074 115.280  0.00  0.00    -0.206 F 
ATOM     17  C17  11 d          -2.993 206.655 114.142  0.00  0.00     0.043 A 
ATOM     18  C18  11 d          -4.145 207.450 114.043  0.00  0.00     0.012 A 
ATOM     19  N1   11 d          -6.486 209.213 116.188  0.00  0.00    -0.264 N 
ATOM     20  N2   11 d          -7.748 208.893 116.000  0.00  0.00    -0.175 NA
ENDROOT
BRANCH  19  21
ATOM     21  C19  11 d          -6.065 209.362 117.505  0.00  0.00     0.033 C 
ATOM     22  C20  11 d          -6.133 208.286 118.327  0.00  0.00     0.108 C 
ATOM     23  C24  11 d          -5.508 210.703 117.917  0.00  0.00     0.070 C 
BRANCH  22  24
ATOM     24  C21  11 d          -5.739 208.212 119.754  0.00  0.00     0.284 C 
ATOM     25  O2   11 d          -4.514 208.222 120.039  0.00  0.00    -0.260 OA
BRANCH  24  26
ATOM     26  O3   11 d          -6.691 208.216 120.808  0.00  0.00    -0.318 OA
BRANCH  26  27
ATOM     27  C22  11 d          -7.047 209.577 121.155  0.00  0.00     0.174 C 
ATOM     28  C23  11 d          -8.508 209.800 120.797  0.00  0.00     0.034 C 
ENDBRANCH  26  27
ENDBRANCH  24  26
ENDBRANCH  22  24
ENDBRANCH  19  21
BRANCH   5  29
ATOM     29  O1   11 d         -12.794 207.176 112.210  0.00  0.00    -0.356 OA
ATOM     30  C6   11 d         -13.395 206.173 113.067  0.00  0.00     0.210 C 
ENDBRANCH   5  29
TORSDOF 5
ENDMDL
MODEL 5
REMARK VINA RESULT:      -7.8      4.048      7.447
REMARK  5 active torsions:
REMARK  status: ('A' for Active; 'I' for Inactive)
REMARK    1  A    between atoms: C5_5  and  O1_6 
REMARK    2  A    between atoms: N1_21  and  C19_22 
REMARK    3  A    between atoms: C20_23  and  C21_24 
REMARK    4  A    between atoms: C21_24  and  O3_26 
REMARK    5  A    between atoms: O3_26  and  C22_27 
ROOT
ATOM      1  C1   11 d         -13.580 206.004 117.966  0.00  0.00     0.072 C 
ATOM      2  C2   11 d         -14.022 206.039 119.387  0.00  0.00    -0.003 A 
ATOM      3  C3   11 d         -13.082 205.707 120.397  0.00  0.00    -0.043 A 
ATOM      4  C4   11 d         -13.462 205.820 121.749  0.00  0.00     0.044 A 
ATOM      5  C5   11 d         -14.775 206.172 122.099  0.00  0.00     0.068 A 
ATOM      6  C7   11 d         -15.698 206.498 121.094  0.00  0.00     0.037 A 
ATOM      7  C8   11 d         -15.330 206.424 119.743  0.00  0.00     0.017 A 
ATOM      8  C9   11 d         -11.634 205.418 120.040  0.00  0.00     0.040 C 
ATOM      9  C10  11 d         -11.234 206.060 118.697  0.00  0.00     0.018 C 
ATOM     10  C11  11 d         -12.198 205.615 117.582  0.00  0.00     0.070 C 
ATOM     11  C12  11 d         -12.172 206.037 116.080  0.00  0.00     0.153 C 
ATOM     12  C13  11 d         -11.239 207.124 115.493  0.00  0.00    -0.033 A 
ATOM     13  C14  11 d         -11.288 207.332 114.089  0.00  0.00     0.012 A 
ATOM     14  C15  11 d         -10.505 208.305 113.453  0.00  0.00     0.043 A 
ATOM     15  C16  11 d          -9.623 209.088 114.199  0.00  0.00     0.116 A 
ATOM     16  F1   11 d          -8.857 210.035 113.583  0.00  0.00    -0.206 F 
ATOM     17  C17  11 d          -9.518 208.885 115.577  0.00  0.00     0.043 A 
ATOM     18  C18  11 d         -10.304 207.912 116.213  0.00  0.00     0.012 A 
ATOM     19  N1   11 d         -13.561 206.339 115.892  0.00  0.00    -0.264 N 
ATOM     20  N2   11 d         -14.306 206.398 116.975  0.00  0.00    -0.175 NA
ENDROOT
BRANCH  19  21
ATOM     21  C19  11 d         -14.198 206.570 114.679  0.00  0.00     0.033 C 
ATOM     22  C20  11 d         -14.349 205.530 113.823  0.00  0.00     0.108 C 
ATOM     23  C24  11 d         -14.730 207.959 114.418  0.00  0.00     0.070 C 
BRANCH  22  24
ATOM     24  C21  11 d         -14.997 205.542 112.490  0.00  0.00     0.284 C 
ATOM     25  O2   11 d         -16.245 205.673 112.430  0.00  0.00    -0.260 OA
BRANCH  24  26
ATOM     26  O3   11 d         -14.251 205.496 111.282  0.00  0.00    -0.318 OA
BRANCH  26  27
ATOM     27  C22  11 d         -13.848 206.832 110.892  0.00  0.00     0.174 C 
ATOM     28  C23  11 d         -14.818 207.341 109.838  0.00  0.00     0.034 C 
ENDBRANCH  26  27
ENDBRANCH  24  26
ENDBRANCH  22  24
ENDBRANCH  19  21
BRANCH   5  29
ATOM     29  O1   11 d         -15.121 206.347 123.464  0.00  0.00    -0.356 OA
ATOM     30  C6   11 d         -16.429 205.769 123.708  0.00  0.00     0.210 C 
ENDBRANCH   5  29
TORSDOF 5
ENDMDL
MODEL 6
REMARK VINA RESULT:      -7.7      4.012      8.812
REMARK  5 active torsions:
REMARK  status: ('A' for Active; 'I' for Inactive)
REMARK    1  A    between atoms: C5_5  and  O1_6 
REMARK    2  A    between atoms: N1_21  and  C19_22 
REMARK    3  A    between atoms: C20_23  and  C21_24 
REMARK    4  A    between atoms: C21_24  and  O3_26 
REMARK    5  A    between atoms: O3_26  and  C22_27 
ROOT
ATOM      1  C1   11 d          -8.879 208.229 116.670  0.00  0.00     0.072 C 
ATOM      2  C2   11 d         -10.340 208.064 116.441  0.00  0.00    -0.003 A 
ATOM      3  C3   11 d         -11.131 207.513 117.483  0.00  0.00    -0.043 A 
ATOM      4  C4   11 d         -12.527 207.432 117.312  0.00  0.00     0.044 A 
ATOM      5  C5   11 d         -13.124 207.808 116.099  0.00  0.00     0.068 A 
ATOM      6  C7   11 d         -12.335 208.351 115.074  0.00  0.00     0.037 A 
ATOM      7  C8   11 d         -10.948 208.471 115.238  0.00  0.00     0.017 A 
ATOM      8  C9   11 d         -10.514 207.192 118.833  0.00  0.00     0.040 C 
ATOM      9  C10  11 d          -9.237 208.014 119.093  0.00  0.00     0.018 C 
ATOM     10  C11  11 d          -8.231 207.818 117.943  0.00  0.00     0.070 C 
ATOM     11  C12  11 d          -6.823 208.473 117.791  0.00  0.00     0.153 C 
ATOM     12  C13  11 d          -6.267 209.577 118.724  0.00  0.00    -0.033 A 
ATOM     13  C14  11 d          -4.934 210.011 118.493  0.00  0.00     0.012 A 
ATOM     14  C15  11 d          -4.337 211.020 119.261  0.00  0.00     0.043 A 
ATOM     15  C16  11 d          -5.045 211.614 120.306  0.00  0.00     0.116 A 
ATOM     16  F1   11 d          -4.467 212.595 121.057  0.00  0.00    -0.206 F 
ATOM     17  C17  11 d          -6.344 211.186 120.589  0.00  0.00     0.043 A 
ATOM     18  C18  11 d          -6.943 210.177 119.819  0.00  0.00     0.012 A 
ATOM     19  N1   11 d          -6.900 208.892 116.423  0.00  0.00    -0.264 N 
ATOM     20  N2   11 d          -8.082 208.824 115.848  0.00  0.00    -0.175 NA
ENDROOT
BRANCH  19  21
ATOM     21  C19  11 d          -5.848 209.356 115.641  0.00  0.00     0.033 C 
ATOM     22  C20  11 d          -4.890 208.475 115.264  0.00  0.00     0.108 C 
ATOM     23  C24  11 d          -5.875 210.805 115.219  0.00  0.00     0.070 C 
BRANCH  22  24
ATOM     24  C21  11 d          -3.691 208.743 114.433  0.00  0.00     0.284 C 
ATOM     25  O2   11 d          -2.556 208.572 114.945  0.00  0.00    -0.260 OA
BRANCH  24  26
ATOM     26  O3   11 d          -3.781 209.104 113.062  0.00  0.00    -0.318 OA
BRANCH  26  27
ATOM     27  C22  11 d          -4.555 208.118 112.336  0.00  0.00     0.174 C 
ATOM     28  C23  11 d          -3.908 207.900 110.978  0.00  0.00     0.034 C 
ENDBRANCH  26  27
ENDBRANCH  24  26
ENDBRANCH  22  24
ENDBRANCH  19  21
BRANCH   5  29
ATOM     29  O1   11 d         -14.538 207.784 115.968  0.00  0.00    -0.356 OA
ATOM     30  C6   11 d         -14.891 207.413 114.612  0.00  0.00     0.210 C 
ENDBRANCH   5  29
TORSDOF 5
ENDMDL
MODEL 7
REMARK VINA RESULT:      -7.4      4.193      7.904
REMARK  5 active torsions:
REMARK  status: ('A' for Active; 'I' for Inactive)
REMARK    1  A    between atoms: C5_5  and  O1_6 
REMARK    2  A    between atoms: N1_21  and  C19_22 
REMARK    3  A    between atoms: C20_23  and  C21_24 
REMARK    4  A    between atoms: C21_24  and  O3_26 
REMARK    5  A    between atoms: O3_26  and  C22_27 
ROOT
ATOM      1  C1   11 d          -8.197 208.012 117.284  0.00  0.00     0.072 C 
ATOM      2  C2   11 d          -8.298 207.176 118.512  0.00  0.00    -0.003 A 
ATOM      3  C3   11 d          -9.557 207.069 119.157  0.00  0.00    -0.043 A 
ATOM      4  C4   11 d          -9.687 206.213 120.268  0.00  0.00     0.044 A 
ATOM      5  C5   11 d          -8.571 205.540 120.789  0.00  0.00     0.068 A 
ATOM      6  C7   11 d          -7.329 205.651 120.145  0.00  0.00     0.037 A 
ATOM      7  C8   11 d          -7.188 206.472 119.017  0.00  0.00     0.017 A 
ATOM      8  C9   11 d         -10.792 207.715 118.552  0.00  0.00     0.040 C 
ATOM      9  C10  11 d         -10.641 207.934 117.034  0.00  0.00     0.018 C 
ATOM     10  C11  11 d          -9.367 208.745 116.734  0.00  0.00     0.070 C 
ATOM     11  C12  11 d          -8.823 209.177 115.337  0.00  0.00     0.153 C 
ATOM     12  C13  11 d          -9.415 208.708 113.985  0.00  0.00    -0.033 A 
ATOM     13  C14  11 d          -8.849 209.258 112.804  0.00  0.00     0.012 A 
ATOM     14  C15  11 d          -9.291 208.889 111.526  0.00  0.00     0.043 A 
ATOM     15  C16  11 d         -10.335 207.973 111.385  0.00  0.00     0.116 A 
ATOM     16  F1   11 d         -10.769 207.613 110.143  0.00  0.00    -0.206 F 
ATOM     17  C17  11 d         -10.943 207.442 112.525  0.00  0.00     0.043 A 
ATOM     18  C18  11 d         -10.500 207.810 113.804  0.00  0.00     0.012 A 
ATOM     19  N1   11 d          -7.446 208.814 115.493  0.00  0.00    -0.264 N 
ATOM     20  N2   11 d          -7.140 208.088 116.548  0.00  0.00    -0.175 NA
ENDROOT
BRANCH  19  21
ATOM     21  C19  11 d          -6.400 209.156 114.644  0.00  0.00     0.033 C 
ATOM     22  C20  11 d          -5.886 208.197 113.837  0.00  0.00     0.108 C 
ATOM     23  C24  11 d          -5.942 210.595 114.640  0.00  0.00     0.070 C 
BRANCH  22  24
ATOM     24  C21  11 d          -4.783 208.336 112.856  0.00  0.00     0.284 C 
ATOM     25  O2   11 d          -5.024 208.104 111.645  0.00  0.00    -0.260 OA
BRANCH  24  26
ATOM     26  O3   11 d          -3.492 208.800 113.225  0.00  0.00    -0.318 OA
BRANCH  26  27
ATOM     27  C22  11 d          -2.648 207.685 113.603  0.00  0.00     0.174 C 
ATOM     28  C23  11 d          -2.422 207.738 115.105  0.00  0.00     0.034 C 
ENDBRANCH  26  27
ENDBRANCH  24  26
ENDBRANCH  22  24
ENDBRANCH  19  21
BRANCH   5  29
ATOM     29  O1   11 d          -8.732 204.629 121.866  0.00  0.00    -0.356 OA
ATOM     30  C6   11 d          -7.469 204.476 122.562  0.00  0.00     0.210 C 
ENDBRANCH   5  29
TORSDOF 5
ENDMDL
MODEL 8
REMARK VINA RESULT:      -7.1     11.931     15.531
REMARK  5 active torsions:
REMARK  status: ('A' for Active; 'I' for Inactive)
REMARK    1  A    between atoms: C5_5  and  O1_6 
REMARK    2  A    between atoms: N1_21  and  C19_22 
REMARK    3  A    between atoms: C20_23  and  C21_24 
REMARK    4  A    between atoms: C21_24  and  O3_26 
REMARK    5  A    between atoms: O3_26  and  C22_27 
ROOT
ATOM      1  C1   11 d         -20.917 202.370 122.855  0.00  0.00     0.072 C 
ATOM      2  C2   11 d         -20.120 203.497 122.301  0.00  0.00    -0.003 A 
ATOM      3  C3   11 d         -19.829 204.601 123.145  0.00  0.00    -0.043 A 
ATOM      4  C4   11 d         -19.002 205.633 122.661  0.00  0.00     0.044 A 
ATOM      5  C5   11 d         -18.540 205.621 121.336  0.00  0.00     0.068 A 
ATOM      6  C7   11 d         -18.833 204.527 120.508  0.00  0.00     0.037 A 
ATOM      7  C8   11 d         -19.627 203.473 120.982  0.00  0.00     0.017 A 
ATOM      8  C9   11 d         -20.240 204.583 124.607  0.00  0.00     0.040 C 
ATOM      9  C10  11 d         -20.428 203.148 125.135  0.00  0.00     0.018 C 
ATOM     10  C11  11 d         -21.428 202.379 124.251  0.00  0.00     0.070 C 
ATOM     11  C12  11 d         -21.895 200.900 124.411  0.00  0.00     0.153 C 
ATOM     12  C13  11 d         -21.289 199.896 125.423  0.00  0.00    -0.033 A 
ATOM     13  C14  11 d         -21.884 198.608 125.494  0.00  0.00     0.012 A 
ATOM     14  C15  11 d         -21.403 197.614 126.357  0.00  0.00     0.043 A 
ATOM     15  C16  11 d         -20.323 197.882 127.199  0.00  0.00     0.116 A 
ATOM     16  F1   11 d         -19.853 196.917 128.041  0.00  0.00    -0.206 F 
ATOM     17  C17  11 d         -19.738 199.150 127.186  0.00  0.00     0.043 A 
ATOM     18  C18  11 d         -20.219 200.145 126.321  0.00  0.00     0.012 A 
ATOM     19  N1   11 d         -21.770 200.460 123.053  0.00  0.00    -0.264 N 
ATOM     20  N2   11 d         -21.142 201.267 122.225  0.00  0.00    -0.175 NA
ENDROOT
BRANCH  19  21
ATOM     21  C19  11 d         -22.252 199.268 122.523  0.00  0.00     0.033 C 
ATOM     22  C20  11 d         -23.592 199.069 122.503  0.00  0.00     0.108 C 
ATOM     23  C24  11 d         -21.246 198.296 121.955  0.00  0.00     0.070 C 
BRANCH  22  24
ATOM     24  C21  11 d         -24.323 197.887 121.985  0.00  0.00     0.284 C 
ATOM     25  O2   11 d         -24.584 197.834 120.757  0.00  0.00    -0.260 OA
BRANCH  24  26
ATOM     26  O3   11 d         -24.660 196.781 122.809  0.00  0.00    -0.318 OA
BRANCH  26  27
ATOM     27  C22  11 d         -23.853 195.631 122.458  0.00  0.00     0.174 C 
ATOM     28  C23  11 d         -22.869 195.368 123.586  0.00  0.00     0.034 C 
ENDBRANCH  26  27
ENDBRANCH  24  26
ENDBRANCH  22  24
ENDBRANCH  19  21
BRANCH   5  29
ATOM     29  O1   11 d         -17.653 206.634 120.885  0.00  0.00    -0.356 OA
ATOM     30  C6   11 d         -16.294 206.282 121.248  0.00  0.00     0.210 C 
ENDBRANCH   5  29
TORSDOF 5
ENDMDL
MODEL 9
REMARK VINA RESULT:      -7.1      6.679      9.635
REMARK  5 active torsions:
REMARK  status: ('A' for Active; 'I' for Inactive)
REMARK    1  A    between atoms: C5_5  and  O1_6 
REMARK    2  A    between atoms: N1_21  and  C19_22 
REMARK    3  A    between atoms: C20_23  and  C21_24 
REMARK    4  A    between atoms: C21_24  and  O3_26 
REMARK    5  A    between atoms: O3_26  and  C22_27 
ROOT
ATOM      1  C1   11 d         -14.519 204.812 119.214  0.00  0.00     0.072 C 
ATOM      2  C2   11 d         -13.809 205.559 118.140  0.00  0.00    -0.003 A 
ATOM      3  C3   11 d         -13.863 205.056 116.815  0.00  0.00    -0.043 A 
ATOM      4  C4   11 d         -13.270 205.799 115.775  0.00  0.00     0.044 A 
ATOM      5  C5   11 d         -12.558 206.976 116.051  0.00  0.00     0.068 A 
ATOM      6  C7   11 d         -12.509 207.467 117.365  0.00  0.00     0.037 A 
ATOM      7  C8   11 d         -13.122 206.759 118.408  0.00  0.00     0.017 A 
ATOM      8  C9   11 d         -14.708 203.836 116.486  0.00  0.00     0.040 C 
ATOM      9  C10  11 d         -15.838 203.626 117.512  0.00  0.00     0.018 C 
ATOM     10  C11  11 d         -15.261 203.554 118.938  0.00  0.00     0.070 C 
ATOM     11  C12  11 d         -16.047 203.367 120.273  0.00  0.00     0.153 C 
ATOM     12  C13  11 d         -17.590 203.383 120.388  0.00  0.00    -0.033 A 
ATOM     13  C14  11 d         -18.148 203.120 121.668  0.00  0.00     0.012 A 
ATOM     14  C15  11 d         -19.532 203.131 121.892  0.00  0.00     0.043 A 
ATOM     15  C16  11 d         -20.409 203.381 120.837  0.00  0.00     0.116 A 
ATOM     16  F1   11 d         -21.756 203.391 121.051  0.00  0.00    -0.206 F 
ATOM     17  C17  11 d         -19.899 203.604 119.555  0.00  0.00     0.043 A 
ATOM     18  C18  11 d         -18.514 203.595 119.331  0.00  0.00     0.012 A 
ATOM     19  N1   11 d         -15.422 204.387 121.063  0.00  0.00    -0.264 N 
ATOM     20  N2   11 d         -14.640 205.233 120.427  0.00  0.00    -0.175 NA
ENDROOT
BRANCH  19  21
ATOM     21  C19  11 d         -15.557 204.566 122.435  0.00  0.00     0.033 C 
ATOM     22  C20  11 d         -16.156 205.697 122.880  0.00  0.00     0.108 C 
ATOM     23  C24  11 d         -15.072 203.457 123.338  0.00  0.00     0.070 C 
BRANCH  22  24
ATOM     24  C21  11 d         -16.409 206.093 124.286  0.00  0.00     0.284 C 
ATOM     25  O2   11 d         -15.576 206.838 124.859  0.00  0.00    -0.260 OA
BRANCH  24  26
ATOM     26  O3   11 d         -17.597 205.731 124.976  0.00  0.00    -0.318 OA
BRANCH  26  27
ATOM     27  C22  11 d         -18.757 205.999 124.150  0.00  0.00     0.174 C 
ATOM     28  C23  11 d         -19.969 205.344 124.792  0.00  0.00     0.034 C 
ENDBRANCH  26  27
ENDBRANCH  24  26
ENDBRANCH  22  24
ENDBRANCH  19  21
BRANCH   5  29
ATOM     29  O1   11 d         -12.025 207.748 114.986  0.00  0.00    -0.356 OA
ATOM     30  C6   11 d         -13.071 208.030 114.023  0.00  0.00     0.210 C 
ENDBRANCH   5  29
TORSDOF 5
ENDMDL
MODEL 10
REMARK VINA RESULT:      -7.0      5.217      9.691
REMARK  5 active torsions:
REMARK  status: ('A' for Active; 'I' for Inactive)
REMARK    1  A    between atoms: C5_5  and  O1_6 
REMARK    2  A    between atoms: N1_21  and  C19_22 
REMARK    3  A    between atoms: C20_23  and  C21_24 
REMARK    4  A    between atoms: C21_24  and  O3_26 
REMARK    5  A    between atoms: O3_26  and  C22_27 
ROOT
ATOM      1  C1   11 d          -6.293 209.222 115.199  0.00  0.00     0.072 C 
ATOM      2  C2   11 d          -7.363 209.019 114.185  0.00  0.00    -0.003 A 
ATOM      3  C3   11 d          -6.984 208.686 112.859  0.00  0.00    -0.043 A 
ATOM      4  C4   11 d          -7.987 208.406 111.910  0.00  0.00     0.044 A 
ATOM      5  C5   11 d          -9.345 208.537 112.242  0.00  0.00     0.068 A 
ATOM      6  C7   11 d          -9.711 208.867 113.555  0.00  0.00     0.037 A 
ATOM      7  C8   11 d          -8.727 209.117 114.522  0.00  0.00     0.017 A 
ATOM      8  C9   11 d          -5.525 208.447 112.509  0.00  0.00     0.040 C 
ATOM      9  C10  11 d          -4.695 208.050 113.745  0.00  0.00     0.018 C 
ATOM     10  C11  11 d          -4.852 209.104 114.857  0.00  0.00     0.070 C 
ATOM     11  C12  11 d          -4.204 209.091 116.276  0.00  0.00     0.153 C 
ATOM     12  C13  11 d          -3.403 207.902 116.861  0.00  0.00    -0.033 A 
ATOM     13  C14  11 d          -2.813 208.084 118.140  0.00  0.00     0.012 A 
ATOM     14  C15  11 d          -2.086 207.068 118.775  0.00  0.00     0.043 A 
ATOM     15  C16  11 d          -1.902 205.839 118.140  0.00  0.00     0.116 A 
ATOM     16  F1   11 d          -1.194 204.848 118.754  0.00  0.00    -0.206 F 
ATOM     17  C17  11 d          -2.434 205.637 116.864  0.00  0.00     0.043 A 
ATOM     18  C18  11 d          -3.163 206.654 116.229  0.00  0.00     0.012 A 
ATOM     19  N1   11 d          -5.351 209.429 117.066  0.00  0.00    -0.264 N 
ATOM     20  N2   11 d          -6.517 209.409 116.456  0.00  0.00    -0.175 NA
ENDROOT
BRANCH  19  21
ATOM     21  C19  11 d          -5.352 209.780 118.411  0.00  0.00     0.033 C 
ATOM     22  C20  11 d          -4.762 210.944 118.773  0.00  0.00     0.108 C 
ATOM     23  C24  11 d          -6.063 208.860 119.375  0.00  0.00     0.070 C 
BRANCH  22  24
ATOM     24  C21  11 d          -4.650 211.517 120.136  0.00  0.00     0.284 C 
ATOM     25  O2   11 d          -3.512 211.588 120.665  0.00  0.00    -0.260 OA
BRANCH  24  26
ATOM     26  O3   11 d          -5.765 212.062 120.826  0.00  0.00    -0.318 OA
BRANCH  26  27
ATOM     27  C22  11 d          -5.603 211.889 122.255  0.00  0.00     0.174 C 
ATOM     28  C23  11 d          -6.235 210.566 122.656  0.00  0.00     0.034 C 
ENDBRANCH  26  27
ENDBRANCH  24  26
ENDBRANCH  22  24
ENDBRANCH  19  21
BRANCH   5  29
ATOM     29  O1   11 d         -10.342 208.185 111.295  0.00  0.00    -0.356 OA
ATOM     30  C6   11 d         -11.335 207.341 111.930  0.00  0.00     0.210 C 
ENDBRANCH   5  29
TORSDOF 5
ENDMDL
