MODEL 1
REMARK VINA RESULT:      -8.9      0.000      0.000
REMARK  9 active torsions:
REMARK  status: ('A' for Active; 'I' for Inactive)
REMARK    1  A    between atoms: C1_1  and  O2_3 
REMARK    2  A    between atoms: C1_1  and  C14_21 
REMARK    3  A    between atoms: O2_3  and  C2_4 
REMARK    4  A    between atoms: C2_4  and  C3_5 
REMARK    5  A    between atoms: C3_5  and  C4_6 
REMARK    6  A    between atoms: N1_8  and  C7_11 
REMARK    7  A    between atoms: C7_11  and  C8_12 
REMARK    8  A    between atoms: C9_13  and  N4_19 
REMARK    9  A    between atoms: C14_21  and  C15_22 
ROOT
ATOM      1  C4   11 d         -11.045 207.129 116.280  0.00  0.00     0.008 A 
ATOM      2  C5   11 d         -10.634 207.778 115.101  0.00  0.00     0.021 A 
ATOM      3  N1   11 d          -9.590 208.631 115.373  0.00  0.00    -0.349 N 
ATOM      4  C6   11 d          -9.258 208.584 116.688  0.00  0.00     0.141 A 
ATOM      5  S1   11 d         -10.149 207.609 117.381  0.00  0.00    -0.087 SA
ATOM      6  C13  11 d         -11.135 207.464 113.713  0.00  0.00     0.069 C 
ENDROOT
BRANCH   1   7
ATOM      7  C3   11 d         -12.107 206.057 116.438  0.00  0.00     0.075 C 
BRANCH   7   8
ATOM      8  C2   11 d         -13.481 206.548 116.907  0.00  0.00     0.183 C 
BRANCH   8   9
ATOM      9  O2   11 d         -13.620 207.969 116.652  0.00  0.00    -0.321 OA
BRANCH   9  10
ATOM     10  C1   11 d         -14.513 208.176 115.566  0.00  0.00     0.259 C 
ATOM     11  O1   11 d         -14.809 209.352 115.239  0.00  0.00    -0.265 OA
BRANCH  10  12
ATOM     12  C14  11 d         -15.253 206.989 114.996  0.00  0.00     0.120 C 
BRANCH  12  13
ATOM     13  C15  11 d         -15.059 206.623 113.495  0.00  0.00    -0.031 C 
ATOM     14  C16  11 d         -16.387 205.998 112.958  0.00  0.00     0.014 C 
ATOM     15  C17  11 d         -16.255 205.611 111.465  0.00  0.00    -0.013 C 
ATOM     16  C18  11 d         -15.120 204.576 111.302  0.00  0.00     0.009 C 
ATOM     17  C24  11 d         -15.925 206.874 110.636  0.00  0.00     0.009 C 
ATOM     18  C19  11 d         -13.791 205.185 111.804  0.00  0.00    -0.013 C 
ATOM     19  C20  11 d         -13.930 205.563 113.298  0.00  0.00     0.014 C 
ATOM     20  C21  11 d         -13.459 206.452 110.981  0.00  0.00     0.009 C 
ATOM     21  C22  11 d         -14.598 207.488 111.136  0.00  0.00    -0.013 C 
ATOM     22  C23  11 d         -14.741 207.879 112.627  0.00  0.00     0.014 C 
ENDBRANCH  12  13
ENDBRANCH  10  12
ENDBRANCH   9  10
ENDBRANCH   8   9
ENDBRANCH   7   8
ENDBRANCH   1   7
BRANCH   3  23
ATOM     23  C7   11 d          -8.919 209.545 114.424  0.00  0.00     0.172 C 
BRANCH  23  24
ATOM     24  C8   11 d          -7.610 209.062 113.820  0.00  0.00     0.023 A 
ATOM     25  C9   11 d          -7.530 208.727 112.443  0.00  0.00     0.132 A 
ATOM     26  N2   11 d          -6.332 208.366 111.902  0.00  0.00    -0.216 NA
ATOM     27  C10  11 d          -5.191 208.326 112.641  0.00  0.00     0.124 A 
ATOM     28  N3   11 d          -5.261 208.551 113.980  0.00  0.00    -0.245 NA
ATOM     29  C12  11 d          -3.919 207.842 112.025  0.00  0.00     0.093 C 
ATOM     30  C11  11 d          -6.428 208.921 114.576  0.00  0.00     0.131 A 
BRANCH  25  31
ATOM     31  N4   11 d          -8.612 208.760 111.585  0.00  0.00    -0.383 N 
ATOM     32  H12  11 d          -8.553 208.430 110.652  0.00  0.00     0.157 HD
ATOM     33  H13  11 d          -9.481 209.126 111.903  0.00  0.00     0.157 HD
ENDBRANCH  25  31
ENDBRANCH  23  24
ENDBRANCH   3  23
TORSDOF 9
ENDMDL
MODEL 2
REMARK VINA RESULT:      -8.8      5.479      8.957
REMARK  9 active torsions:
REMARK  status: ('A' for Active; 'I' for Inactive)
REMARK    1  A    between atoms: C1_1  and  O2_3 
REMARK    2  A    between atoms: C1_1  and  C14_21 
REMARK    3  A    between atoms: O2_3  and  C2_4 
REMARK    4  A    between atoms: C2_4  and  C3_5 
REMARK    5  A    between atoms: C3_5  and  C4_6 
REMARK    6  A    between atoms: N1_8  and  C7_11 
REMARK    7  A    between atoms: C7_11  and  C8_12 
REMARK    8  A    between atoms: C9_13  and  N4_19 
REMARK    9  A    between atoms: C14_21  and  C15_22 
ROOT
ATOM      1  C4   11 d         -14.118 205.079 118.177  0.00  0.00     0.008 A 
ATOM      2  C5   11 d         -14.980 204.071 118.648  0.00  0.00     0.021 A 
ATOM      3  N1   11 d         -15.237 204.257 119.986  0.00  0.00    -0.349 N 
ATOM      4  C6   11 d         -14.597 205.360 120.451  0.00  0.00     0.141 A 
ATOM      5  S1   11 d         -13.838 205.992 119.333  0.00  0.00    -0.087 SA
ATOM      6  C13  11 d         -15.666 203.039 117.787  0.00  0.00     0.069 C 
ENDROOT
BRANCH   1   7
ATOM      7  C3   11 d         -13.631 205.310 116.759  0.00  0.00     0.075 C 
BRANCH   7   8
ATOM      8  C2   11 d         -13.135 206.727 116.450  0.00  0.00     0.183 C 
BRANCH   8   9
ATOM      9  O2   11 d         -14.235 207.555 115.994  0.00  0.00    -0.321 OA
BRANCH   9  10
ATOM     10  C1   11 d         -13.802 208.376 114.919  0.00  0.00     0.259 C 
ATOM     11  O1   11 d         -14.195 209.568 114.869  0.00  0.00    -0.265 OA
BRANCH  10  12
ATOM     12  C14  11 d         -13.085 207.734 113.755  0.00  0.00     0.120 C 
BRANCH  12  13
ATOM     13  C15  11 d         -13.914 206.984 112.672  0.00  0.00    -0.031 C 
ATOM     14  C16  11 d         -15.281 207.721 112.492  0.00  0.00     0.014 C 
ATOM     15  C17  11 d         -16.154 207.019 111.424  0.00  0.00    -0.013 C 
ATOM     16  C18  11 d         -16.430 205.562 111.862  0.00  0.00     0.009 C 
ATOM     17  C24  11 d         -15.405 207.016 110.071  0.00  0.00     0.009 C 
ATOM     18  C19  11 d         -15.089 204.810 112.019  0.00  0.00    -0.013 C 
ATOM     19  C20  11 d         -14.226 205.514 113.093  0.00  0.00     0.014 C 
ATOM     20  C21  11 d         -14.333 204.810 110.670  0.00  0.00     0.009 C 
ATOM     21  C22  11 d         -14.063 206.267 110.224  0.00  0.00    -0.013 C 
ATOM     22  C23  11 d         -13.193 206.979 111.289  0.00  0.00     0.014 C 
ENDBRANCH  12  13
ENDBRANCH  10  12
ENDBRANCH   9  10
ENDBRANCH   8   9
ENDBRANCH   7   8
ENDBRANCH   1   7
BRANCH   3  23
ATOM     23  C7   11 d         -16.037 203.381 120.868  0.00  0.00     0.172 C 
BRANCH  23  24
ATOM     24  C8   11 d         -16.959 204.071 121.860  0.00  0.00     0.023 A 
ATOM     25  C9   11 d         -18.195 204.625 121.435  0.00  0.00     0.132 A 
ATOM     26  N2   11 d         -19.043 205.174 122.350  0.00  0.00    -0.216 NA
ATOM     27  C10  11 d         -18.750 205.201 123.677  0.00  0.00     0.124 A 
ATOM     28  N3   11 d         -17.533 204.761 124.097  0.00  0.00    -0.245 NA
ATOM     29  C12  11 d         -19.670 205.890 124.632  0.00  0.00     0.093 C 
ATOM     30  C11  11 d         -16.647 204.198 123.230  0.00  0.00     0.131 A 
BRANCH  25  31
ATOM     31  N4   11 d         -18.616 204.629 120.119  0.00  0.00    -0.383 N 
ATOM     32  H12  11 d         -18.779 203.789 119.616  0.00  0.00     0.157 HD
ATOM     33  H13  11 d         -18.762 205.495 119.652  0.00  0.00     0.157 HD
ENDBRANCH  25  31
ENDBRANCH  23  24
ENDBRANCH   3  23
TORSDOF 9
ENDMDL
MODEL 3
REMARK VINA RESULT:      -8.8      5.466      9.027
REMARK  9 active torsions:
REMARK  status: ('A' for Active; 'I' for Inactive)
REMARK    1  A    between atoms: C1_1  and  O2_3 
REMARK    2  A    between atoms: C1_1  and  C14_21 
REMARK    3  A    between atoms: O2_3  and  C2_4 
REMARK    4  A    between atoms: C2_4  and  C3_5 
REMARK    5  A    between atoms: C3_5  and  C4_6 
REMARK    6  A    between atoms: N1_8  and  C7_11 
REMARK    7  A    between atoms: C7_11  and  C8_12 
REMARK    8  A    between atoms: C9_13  and  N4_19 
REMARK    9  A    between atoms: C14_21  and  C15_22 
ROOT
ATOM      1  C4   11 d         -14.043 204.854 117.989  0.00  0.00     0.008 A 
ATOM      2  C5   11 d         -14.981 203.919 118.465  0.00  0.00     0.021 A 
ATOM      3  N1   11 d         -15.274 204.176 119.784  0.00  0.00    -0.349 N 
ATOM      4  C6   11 d         -14.588 205.259 120.229  0.00  0.00     0.141 A 
ATOM      5  S1   11 d         -13.752 205.797 119.117  0.00  0.00    -0.087 SA
ATOM      6  C13  11 d         -15.695 202.894 117.620  0.00  0.00     0.069 C 
ENDROOT
BRANCH   1   7
ATOM      7  C3   11 d         -13.491 204.996 116.583  0.00  0.00     0.075 C 
BRANCH   7   8
ATOM      8  C2   11 d         -12.330 205.984 116.422  0.00  0.00     0.183 C 
BRANCH   8   9
ATOM      9  O2   11 d         -11.712 205.825 115.120  0.00  0.00    -0.321 OA
BRANCH   9  10
ATOM     10  C1   11 d         -11.859 207.023 114.370  0.00  0.00     0.259 C 
ATOM     11  O1   11 d         -10.844 207.729 114.150  0.00  0.00    -0.265 OA
BRANCH  10  12
ATOM     12  C14  11 d         -13.251 207.526 114.068  0.00  0.00     0.120 C 
BRANCH  12  13
ATOM     13  C15  11 d         -14.035 206.915 112.870  0.00  0.00    -0.031 C 
ATOM     14  C16  11 d         -13.066 206.791 111.650  0.00  0.00     0.014 C 
ATOM     15  C17  11 d         -13.792 206.187 110.423  0.00  0.00    -0.013 C 
ATOM     16  C18  11 d         -14.974 207.100 110.026  0.00  0.00     0.009 C 
ATOM     17  C24  11 d         -14.324 204.781 110.783  0.00  0.00     0.009 C 
ATOM     18  C19  11 d         -15.958 207.213 111.212  0.00  0.00    -0.013 C 
ATOM     19  C20  11 d         -15.227 207.823 112.431  0.00  0.00     0.014 C 
ATOM     20  C21  11 d         -16.489 205.808 111.580  0.00  0.00     0.009 C 
ATOM     21  C22  11 d         -15.307 204.889 111.971  0.00  0.00    -0.013 C 
ATOM     22  C23  11 d         -14.572 205.487 113.195  0.00  0.00     0.014 C 
ENDBRANCH  12  13
ENDBRANCH  10  12
ENDBRANCH   9  10
ENDBRANCH   8   9
ENDBRANCH   7   8
ENDBRANCH   1   7
BRANCH   3  23
ATOM     23  C7   11 d         -16.157 203.386 120.668  0.00  0.00     0.172 C 
BRANCH  23  24
ATOM     24  C8   11 d         -16.972 204.163 121.690  0.00  0.00     0.023 A 
ATOM     25  C9   11 d         -18.209 204.757 121.327  0.00  0.00     0.132 A 
ATOM     26  N2   11 d         -18.962 205.387 122.273  0.00  0.00    -0.216 NA
ATOM     27  C10  11 d         -18.571 205.457 123.574  0.00  0.00     0.124 A 
ATOM     28  N3   11 d         -17.348 204.977 123.926  0.00  0.00    -0.245 NA
ATOM     29  C12  11 d         -19.387 206.231 124.558  0.00  0.00     0.093 C 
ATOM     30  C11  11 d         -16.555 204.333 123.026  0.00  0.00     0.131 A 
BRANCH  25  31
ATOM     31  N4   11 d         -18.724 204.725 120.046  0.00  0.00    -0.383 N 
ATOM     32  H12  11 d         -19.599 205.136 119.821  0.00  0.00     0.157 HD
ATOM     33  H13  11 d         -18.212 204.279 119.320  0.00  0.00     0.157 HD
ENDBRANCH  25  31
ENDBRANCH  23  24
ENDBRANCH   3  23
TORSDOF 9
ENDMDL
MODEL 4
REMARK VINA RESULT:      -8.7      4.926      8.489
REMARK  9 active torsions:
REMARK  status: ('A' for Active; 'I' for Inactive)
REMARK    1  A    between atoms: C1_1  and  O2_3 
REMARK    2  A    between atoms: C1_1  and  C14_21 
REMARK    3  A    between atoms: O2_3  and  C2_4 
REMARK    4  A    between atoms: C2_4  and  C3_5 
REMARK    5  A    between atoms: C3_5  and  C4_6 
REMARK    6  A    between atoms: N1_8  and  C7_11 
REMARK    7  A    between atoms: C7_11  and  C8_12 
REMARK    8  A    between atoms: C9_13  and  N4_19 
REMARK    9  A    between atoms: C14_21  and  C15_22 
ROOT
ATOM      1  C4   11 d         -13.637 205.747 117.766  0.00  0.00     0.008 A 
ATOM      2  C5   11 d         -14.298 204.933 118.705  0.00  0.00     0.021 A 
ATOM      3  N1   11 d         -14.654 205.678 119.805  0.00  0.00    -0.349 N 
ATOM      4  C6   11 d         -14.277 206.973 119.654  0.00  0.00     0.141 A 
ATOM      5  S1   11 d         -13.607 207.135 118.331  0.00  0.00    -0.087 SA
ATOM      6  C13  11 d         -14.715 203.502 118.476  0.00  0.00     0.069 C 
ENDROOT
BRANCH   1   7
ATOM      7  C3   11 d         -13.136 205.369 116.385  0.00  0.00     0.075 C 
BRANCH   7   8
ATOM      8  C2   11 d         -11.708 205.816 116.051  0.00  0.00     0.183 C 
BRANCH   8   9
ATOM      9  O2   11 d         -11.534 205.910 114.614  0.00  0.00    -0.321 OA
BRANCH   9  10
ATOM     10  C1   11 d         -11.826 207.231 114.182  0.00  0.00     0.259 C 
ATOM     11  O1   11 d         -10.905 208.087 114.182  0.00  0.00    -0.265 OA
BRANCH  10  12
ATOM     12  C14  11 d         -13.267 207.626 113.963  0.00  0.00     0.120 C 
BRANCH  12  13
ATOM     13  C15  11 d         -14.051 207.004 112.770  0.00  0.00    -0.031 C 
ATOM     14  C16  11 d         -14.485 205.554 113.158  0.00  0.00     0.014 C 
ATOM     15  C17  11 d         -15.270 204.882 112.007  0.00  0.00    -0.013 C 
ATOM     16  C18  11 d         -14.376 204.811 110.748  0.00  0.00     0.009 C 
ATOM     17  C24  11 d         -16.535 205.715 111.694  0.00  0.00     0.009 C 
ATOM     18  C19  11 d         -13.959 206.240 110.332  0.00  0.00    -0.013 C 
ATOM     19  C20  11 d         -13.169 206.902 111.486  0.00  0.00     0.014 C 
ATOM     20  C21  11 d         -15.221 207.079 110.024  0.00  0.00     0.009 C 
ATOM     21  C22  11 d         -16.122 207.145 111.280  0.00  0.00    -0.013 C 
ATOM     22  C23  11 d         -15.343 207.813 112.440  0.00  0.00     0.014 C 
ENDBRANCH  12  13
ENDBRANCH  10  12
ENDBRANCH   9  10
ENDBRANCH   8   9
ENDBRANCH   7   8
ENDBRANCH   1   7
BRANCH   3  23
ATOM     23  C7   11 d         -15.303 205.185 121.039  0.00  0.00     0.172 C 
BRANCH  23  24
ATOM     24  C8   11 d         -16.769 204.797 120.931  0.00  0.00     0.023 A 
ATOM     25  C9   11 d         -17.776 205.793 120.847  0.00  0.00     0.132 A 
ATOM     26  N2   11 d         -19.078 205.428 120.678  0.00  0.00    -0.216 NA
ATOM     27  C10  11 d         -19.452 204.125 120.572  0.00  0.00     0.124 A 
ATOM     28  N3   11 d         -18.519 203.151 120.742  0.00  0.00    -0.245 NA
ATOM     29  C12  11 d         -20.900 203.770 120.473  0.00  0.00     0.093 C 
ATOM     30  C11  11 d         -17.202 203.455 120.909  0.00  0.00     0.131 A 
BRANCH  25  31
ATOM     31  N4   11 d         -17.516 207.149 120.911  0.00  0.00    -0.383 N 
ATOM     32  H12  11 d         -17.547 207.728 120.107  0.00  0.00     0.157 HD
ATOM     33  H13  11 d         -17.288 207.565 121.785  0.00  0.00     0.157 HD
ENDBRANCH  25  31
ENDBRANCH  23  24
ENDBRANCH   3  23
TORSDOF 9
ENDMDL
MODEL 5
REMARK VINA RESULT:      -8.6      1.291      1.863
REMARK  9 active torsions:
REMARK  status: ('A' for Active; 'I' for Inactive)
REMARK    1  A    between atoms: C1_1  and  O2_3 
REMARK    2  A    between atoms: C1_1  and  C14_21 
REMARK    3  A    between atoms: O2_3  and  C2_4 
REMARK    4  A    between atoms: C2_4  and  C3_5 
REMARK    5  A    between atoms: C3_5  and  C4_6 
REMARK    6  A    between atoms: N1_8  and  C7_11 
REMARK    7  A    between atoms: C7_11  and  C8_12 
REMARK    8  A    between atoms: C9_13  and  N4_19 
REMARK    9  A    between atoms: C14_21  and  C15_22 
ROOT
ATOM      1  C4   11 d         -10.768 207.836 117.099  0.00  0.00     0.008 A 
ATOM      2  C5   11 d         -10.472 208.401 115.845  0.00  0.00     0.021 A 
ATOM      3  N1   11 d          -9.135 208.715 115.773  0.00  0.00    -0.349 N 
ATOM      4  C6   11 d          -8.497 208.375 116.922  0.00  0.00     0.141 A 
ATOM      5  S1   11 d          -9.481 207.770 117.866  0.00  0.00    -0.087 SA
ATOM      6  C13  11 d         -11.430 208.493 114.684  0.00  0.00     0.069 C 
ENDROOT
BRANCH   1   7
ATOM      7  C3   11 d         -12.091 207.278 117.589  0.00  0.00     0.075 C 
BRANCH   7   8
ATOM      8  C2   11 d         -12.266 205.762 117.445  0.00  0.00     0.183 C 
BRANCH   8   9
ATOM      9  O2   11 d         -12.672 205.430 116.092  0.00  0.00    -0.321 OA
BRANCH   9  10
ATOM     10  C1   11 d         -14.076 205.600 115.958  0.00  0.00     0.259 C 
ATOM     11  O1   11 d         -14.840 204.714 116.416  0.00  0.00    -0.265 OA
BRANCH  10  12
ATOM     12  C14  11 d         -14.594 206.707 115.072  0.00  0.00     0.120 C 
BRANCH  12  13
ATOM     13  C15  11 d         -14.720 206.458 113.540  0.00  0.00    -0.031 C 
ATOM     14  C16  11 d         -14.841 207.839 112.818  0.00  0.00     0.014 C 
ATOM     15  C17  11 d         -14.970 207.655 111.287  0.00  0.00    -0.013 C 
ATOM     16  C18  11 d         -16.233 206.820 110.974  0.00  0.00     0.009 C 
ATOM     17  C24  11 d         -13.720 206.919 110.752  0.00  0.00     0.009 C 
ATOM     18  C19  11 d         -16.119 205.439 111.659  0.00  0.00    -0.013 C 
ATOM     19  C20  11 d         -15.997 205.632 113.189  0.00  0.00     0.014 C 
ATOM     20  C21  11 d         -14.867 204.701 111.131  0.00  0.00     0.009 C 
ATOM     21  C22  11 d         -13.601 205.538 111.435  0.00  0.00    -0.013 C 
ATOM     22  C23  11 d         -13.465 205.731 112.966  0.00  0.00     0.014 C 
ENDBRANCH  12  13
ENDBRANCH  10  12
ENDBRANCH   9  10
ENDBRANCH   8   9
ENDBRANCH   7   8
ENDBRANCH   1   7
BRANCH   3  23
ATOM     23  C7   11 d          -8.439 209.386 114.655  0.00  0.00     0.172 C 
BRANCH  23  24
ATOM     24  C8   11 d          -7.089 208.816 114.250  0.00  0.00     0.023 A 
ATOM     25  C9   11 d          -6.716 208.744 112.883  0.00  0.00     0.132 A 
ATOM     26  N2   11 d          -5.473 208.299 112.542  0.00  0.00    -0.216 NA
ATOM     27  C10  11 d          -4.561 207.926 113.479  0.00  0.00     0.124 A 
ATOM     28  N3   11 d          -4.927 207.898 114.788  0.00  0.00    -0.245 NA
ATOM     29  C12  11 d          -3.242 207.364 113.055  0.00  0.00     0.093 C 
ATOM     30  C11  11 d          -6.152 208.337 115.189  0.00  0.00     0.131 A 
BRANCH  25  31
ATOM     31  N4   11 d          -7.544 209.122 111.845  0.00  0.00    -0.383 N 
ATOM     32  H12  11 d          -7.354 209.919 111.284  0.00  0.00     0.157 HD
ATOM     33  H13  11 d          -8.359 208.588 111.645  0.00  0.00     0.157 HD
ENDBRANCH  25  31
ENDBRANCH  23  24
ENDBRANCH   3  23
TORSDOF 9
ENDMDL
MODEL 6
REMARK VINA RESULT:      -8.4      1.706      2.697
REMARK  9 active torsions:
REMARK  status: ('A' for Active; 'I' for Inactive)
REMARK    1  A    between atoms: C1_1  and  O2_3 
REMARK    2  A    between atoms: C1_1  and  C14_21 
REMARK    3  A    between atoms: O2_3  and  C2_4 
REMARK    4  A    between atoms: C2_4  and  C3_5 
REMARK    5  A    between atoms: C3_5  and  C4_6 
REMARK    6  A    between atoms: N1_8  and  C7_11 
REMARK    7  A    between atoms: C7_11  and  C8_12 
REMARK    8  A    between atoms: C9_13  and  N4_19 
REMARK    9  A    between atoms: C14_21  and  C15_22 
ROOT
ATOM      1  C4   11 d         -10.356 208.151 116.680  0.00  0.00     0.008 A 
ATOM      2  C5   11 d          -9.113 208.022 117.328  0.00  0.00     0.021 A 
ATOM      3  N1   11 d          -8.106 208.479 116.510  0.00  0.00    -0.349 N 
ATOM      4  C6   11 d          -8.608 208.929 115.332  0.00  0.00     0.141 A 
ATOM      5  S1   11 d         -10.091 208.773 115.342  0.00  0.00    -0.087 SA
ATOM      6  C13  11 d          -8.918 207.612 118.766  0.00  0.00     0.069 C 
ENDROOT
BRANCH   1   7
ATOM      7  C3   11 d         -11.736 207.843 117.230  0.00  0.00     0.075 C 
BRANCH   7   8
ATOM      8  C2   11 d         -12.430 206.616 116.630  0.00  0.00     0.183 C 
BRANCH   8   9
ATOM      9  O2   11 d         -13.821 206.915 116.346  0.00  0.00    -0.321 OA
BRANCH   9  10
ATOM     10  C1   11 d         -13.901 207.864 115.292  0.00  0.00     0.259 C 
ATOM     11  O1   11 d         -14.690 208.834 115.408  0.00  0.00    -0.265 OA
BRANCH  10  12
ATOM     12  C14  11 d         -13.221 207.554 113.979  0.00  0.00     0.120 C 
BRANCH  12  13
ATOM     13  C15  11 d         -14.047 206.901 112.832  0.00  0.00    -0.031 C 
ATOM     14  C16  11 d         -13.069 206.490 111.685  0.00  0.00     0.014 C 
ATOM     15  C17  11 d         -13.834 205.833 110.511  0.00  0.00    -0.013 C 
ATOM     16  C18  11 d         -14.867 206.835 109.946  0.00  0.00     0.009 C 
ATOM     17  C24  11 d         -14.568 204.570 111.020  0.00  0.00     0.009 C 
ATOM     18  C19  11 d         -15.860 207.234 111.061  0.00  0.00    -0.013 C 
ATOM     19  C20  11 d         -15.088 207.895 112.227  0.00  0.00     0.014 C 
ATOM     20  C21  11 d         -16.592 205.973 111.578  0.00  0.00     0.009 C 
ATOM     21  C22  11 d         -15.561 204.964 112.137  0.00  0.00    -0.013 C 
ATOM     22  C23  11 d         -14.786 205.613 113.310  0.00  0.00     0.014 C 
ENDBRANCH  12  13
ENDBRANCH  10  12
ENDBRANCH   9  10
ENDBRANCH   8   9
ENDBRANCH   7   8
ENDBRANCH   1   7
BRANCH   3  23
ATOM     23  C7   11 d          -6.654 208.454 116.788  0.00  0.00     0.172 C 
BRANCH  23  24
ATOM     24  C8   11 d          -5.728 208.660 115.601  0.00  0.00     0.023 A 
ATOM     25  C9   11 d          -5.387 209.968 115.169  0.00  0.00     0.132 A 
ATOM     26  N2   11 d          -4.497 210.135 114.149  0.00  0.00    -0.216 NA
ATOM     27  C10  11 d          -3.906 209.079 113.530  0.00  0.00     0.124 A 
ATOM     28  N3   11 d          -4.286 207.817 113.863  0.00  0.00    -0.245 NA
ATOM     29  C12  11 d          -3.003 209.308 112.361  0.00  0.00     0.093 C 
ATOM     30  C11  11 d          -5.167 207.588 114.876  0.00  0.00     0.131 A 
BRANCH  25  31
ATOM     31  N4   11 d          -5.898 211.118 115.739  0.00  0.00    -0.383 N 
ATOM     32  H12  11 d          -6.678 211.594 115.353  0.00  0.00     0.157 HD
ATOM     33  H13  11 d          -5.478 211.488 116.562  0.00  0.00     0.157 HD
ENDBRANCH  25  31
ENDBRANCH  23  24
ENDBRANCH   3  23
TORSDOF 9
ENDMDL
MODEL 7
REMARK VINA RESULT:      -8.4      2.225      2.828
REMARK  9 active torsions:
REMARK  status: ('A' for Active; 'I' for Inactive)
REMARK    1  A    between atoms: C1_1  and  O2_3 
REMARK    2  A    between atoms: C1_1  and  C14_21 
REMARK    3  A    between atoms: O2_3  and  C2_4 
REMARK    4  A    between atoms: C2_4  and  C3_5 
REMARK    5  A    between atoms: C3_5  and  C4_6 
REMARK    6  A    between atoms: N1_8  and  C7_11 
REMARK    7  A    between atoms: C7_11  and  C8_12 
REMARK    8  A    between atoms: C9_13  and  N4_19 
REMARK    9  A    between atoms: C14_21  and  C15_22 
ROOT
ATOM      1  C4   11 d         -10.705 206.875 118.547  0.00  0.00     0.008 A 
ATOM      2  C5   11 d          -9.806 207.765 117.930  0.00  0.00     0.021 A 
ATOM      3  N1   11 d          -8.586 207.717 118.563  0.00  0.00    -0.349 N 
ATOM      4  C6   11 d          -8.606 206.821 119.583  0.00  0.00     0.141 A 
ATOM      5  S1   11 d          -9.957 206.193 119.653  0.00  0.00    -0.087 SA
ATOM      6  C13  11 d         -10.073 208.529 116.657  0.00  0.00     0.069 C 
ENDROOT
BRANCH   1   7
ATOM      7  C3   11 d         -12.129 206.548 118.140  0.00  0.00     0.075 C 
BRANCH   7   8
ATOM      8  C2   11 d         -12.306 205.265 117.320  0.00  0.00     0.183 C 
BRANCH   8   9
ATOM      9  O2   11 d         -13.269 205.478 116.256  0.00  0.00    -0.321 OA
BRANCH   9  10
ATOM     10  C1   11 d         -12.603 205.948 115.093  0.00  0.00     0.259 C 
ATOM     11  O1   11 d         -11.426 205.566 114.872  0.00  0.00    -0.265 OA
BRANCH  10  12
ATOM     12  C14  11 d         -13.232 207.064 114.293  0.00  0.00     0.120 C 
BRANCH  12  13
ATOM     13  C15  11 d         -13.954 206.725 112.956  0.00  0.00    -0.031 C 
ATOM     14  C16  11 d         -14.606 205.310 113.086  0.00  0.00     0.014 C 
ATOM     15  C17  11 d         -15.341 204.916 111.782  0.00  0.00    -0.013 C 
ATOM     16  C18  11 d         -14.332 204.891 110.611  0.00  0.00     0.009 C 
ATOM     17  C24  11 d         -16.450 205.952 111.485  0.00  0.00     0.009 C 
ATOM     18  C19  11 d         -13.696 206.291 110.450  0.00  0.00    -0.013 C 
ATOM     19  C20  11 d         -12.959 206.675 111.755  0.00  0.00     0.014 C 
ATOM     20  C21  11 d         -14.802 207.332 110.159  0.00  0.00     0.009 C 
ATOM     21  C22  11 d         -15.819 207.353 111.326  0.00  0.00    -0.013 C 
ATOM     22  C23  11 d         -15.092 207.743 112.637  0.00  0.00     0.014 C 
ENDBRANCH  12  13
ENDBRANCH  10  12
ENDBRANCH   9  10
ENDBRANCH   8   9
ENDBRANCH   7   8
ENDBRANCH   1   7
BRANCH   3  23
ATOM     23  C7   11 d          -7.398 208.544 118.266  0.00  0.00     0.172 C 
BRANCH  23  24
ATOM     24  C8   11 d          -6.440 208.010 117.213  0.00  0.00     0.023 A 
ATOM     25  C9   11 d          -6.241 208.710 115.995  0.00  0.00     0.132 A 
ATOM     26  N2   11 d          -5.325 208.256 115.093  0.00  0.00    -0.216 NA
ATOM     27  C10  11 d          -4.573 207.147 115.328  0.00  0.00     0.124 A 
ATOM     28  N3   11 d          -4.810 206.409 116.445  0.00  0.00    -0.245 NA
ATOM     29  C12  11 d          -3.642 206.639 114.275  0.00  0.00     0.093 C 
ATOM     30  C11  11 d          -5.710 206.815 117.383  0.00  0.00     0.131 A 
BRANCH  25  31
ATOM     31  N4   11 d          -6.923 209.863 115.657  0.00  0.00    -0.383 N 
ATOM     32  H12  11 d          -7.721 210.168 116.161  0.00  0.00     0.157 HD
ATOM     33  H13  11 d          -6.613 210.411 114.888  0.00  0.00     0.157 HD
ENDBRANCH  25  31
ENDBRANCH  23  24
ENDBRANCH   3  23
TORSDOF 9
ENDMDL
MODEL 8
REMARK VINA RESULT:      -8.2      3.412      5.261
REMARK  9 active torsions:
REMARK  status: ('A' for Active; 'I' for Inactive)
REMARK    1  A    between atoms: C1_1  and  O2_3 
REMARK    2  A    between atoms: C1_1  and  C14_21 
REMARK    3  A    between atoms: O2_3  and  C2_4 
REMARK    4  A    between atoms: C2_4  and  C3_5 
REMARK    5  A    between atoms: C3_5  and  C4_6 
REMARK    6  A    between atoms: N1_8  and  C7_11 
REMARK    7  A    between atoms: C7_11  and  C8_12 
REMARK    8  A    between atoms: C9_13  and  N4_19 
REMARK    9  A    between atoms: C14_21  and  C15_22 
ROOT
ATOM      1  C4   11 d          -7.846 209.351 114.647  0.00  0.00     0.008 A 
ATOM      2  C5   11 d          -8.138 208.751 115.886  0.00  0.00     0.021 A 
ATOM      3  N1   11 d          -7.010 208.722 116.673  0.00  0.00    -0.349 N 
ATOM      4  C6   11 d          -5.958 209.291 116.031  0.00  0.00     0.141 A 
ATOM      5  S1   11 d          -6.403 209.757 114.685  0.00  0.00    -0.087 SA
ATOM      6  C13  11 d          -9.514 208.355 116.359  0.00  0.00     0.069 C 
ENDROOT
BRANCH   1   7
ATOM      7  C3   11 d          -8.797 209.658 113.506  0.00  0.00     0.075 C 
BRANCH   7   8
ATOM      8  C2   11 d          -9.187 208.464 112.628  0.00  0.00     0.183 C 
BRANCH   8   9
ATOM      9  O2   11 d         -10.614 208.477 112.368  0.00  0.00    -0.321 OA
BRANCH   9  10
ATOM     10  C1   11 d         -11.265 207.547 113.222  0.00  0.00     0.259 C 
ATOM     11  O1   11 d         -10.653 206.503 113.561  0.00  0.00    -0.265 OA
BRANCH  10  12
ATOM     12  C14  11 d         -12.739 207.721 113.501  0.00  0.00     0.120 C 
BRANCH  12  13
ATOM     13  C15  11 d         -13.774 206.982 112.604  0.00  0.00    -0.031 C 
ATOM     14  C16  11 d         -13.165 206.813 111.174  0.00  0.00     0.014 C 
ATOM     15  C17  11 d         -14.153 206.083 110.233  0.00  0.00    -0.013 C 
ATOM     16  C18  11 d         -15.458 206.903 110.121  0.00  0.00     0.009 C 
ATOM     17  C24  11 d         -14.471 204.684 110.809  0.00  0.00     0.009 C 
ATOM     18  C19  11 d         -16.090 207.058 111.523  0.00  0.00    -0.013 C 
ATOM     19  C20  11 d         -15.099 207.794 112.456  0.00  0.00     0.014 C 
ATOM     20  C21  11 d         -16.404 205.660 112.107  0.00  0.00     0.009 C 
ATOM     21  C22  11 d         -15.100 204.834 112.212  0.00  0.00    -0.013 C 
ATOM     22  C23  11 d         -14.104 205.559 113.150  0.00  0.00     0.014 C 
ENDBRANCH  12  13
ENDBRANCH  10  12
ENDBRANCH   9  10
ENDBRANCH   8   9
ENDBRANCH   7   8
ENDBRANCH   1   7
BRANCH   3  23
ATOM     23  C7   11 d          -6.878 208.115 118.015  0.00  0.00     0.172 C 
BRANCH  23  24
ATOM     24  C8   11 d          -6.550 209.058 119.161  0.00  0.00     0.023 A 
ATOM     25  C9   11 d          -7.579 209.572 119.992  0.00  0.00     0.132 A 
ATOM     26  N2   11 d          -7.261 210.357 121.060  0.00  0.00    -0.216 NA
ATOM     27  C10  11 d          -5.972 210.661 121.370  0.00  0.00     0.124 A 
ATOM     28  N3   11 d          -4.976 210.258 120.536  0.00  0.00    -0.245 NA
ATOM     29  C12  11 d          -5.676 211.595 122.499  0.00  0.00     0.093 C 
ATOM     30  C11  11 d          -5.234 209.468 119.458  0.00  0.00     0.131 A 
BRANCH  25  31
ATOM     31  N4   11 d          -8.921 209.308 119.796  0.00  0.00    -0.383 N 
ATOM     32  H12  11 d          -9.596 210.033 119.735  0.00  0.00     0.157 HD
ATOM     33  H13  11 d          -9.231 208.367 119.712  0.00  0.00     0.157 HD
ENDBRANCH  25  31
ENDBRANCH  23  24
ENDBRANCH   3  23
TORSDOF 9
ENDMDL
MODEL 9
REMARK VINA RESULT:      -8.1      2.917      4.155
REMARK  9 active torsions:
REMARK  status: ('A' for Active; 'I' for Inactive)
REMARK    1  A    between atoms: C1_1  and  O2_3 
REMARK    2  A    between atoms: C1_1  and  C14_21 
REMARK    3  A    between atoms: O2_3  and  C2_4 
REMARK    4  A    between atoms: C2_4  and  C3_5 
REMARK    5  A    between atoms: C3_5  and  C4_6 
REMARK    6  A    between atoms: N1_8  and  C7_11 
REMARK    7  A    between atoms: C7_11  and  C8_12 
REMARK    8  A    between atoms: C9_13  and  N4_19 
REMARK    9  A    between atoms: C14_21  and  C15_22 
ROOT
ATOM      1  C4   11 d         -11.145 207.171 117.739  0.00  0.00     0.008 A 
ATOM      2  C5   11 d         -10.015 206.907 118.536  0.00  0.00     0.021 A 
ATOM      3  N1   11 d          -8.930 207.606 118.061  0.00  0.00    -0.349 N 
ATOM      4  C6   11 d          -9.271 208.351 116.979  0.00  0.00     0.141 A 
ATOM      5  S1   11 d         -10.720 208.151 116.686  0.00  0.00    -0.087 SA
ATOM      6  C13  11 d         -10.021 206.118 119.822  0.00  0.00     0.069 C 
ENDROOT
BRANCH   1   7
ATOM      7  C3   11 d         -12.566 206.678 117.934  0.00  0.00     0.075 C 
BRANCH   7   8
ATOM      8  C2   11 d         -13.316 206.293 116.654  0.00  0.00     0.183 C 
BRANCH   8   9
ATOM      9  O2   11 d         -14.486 207.134 116.486  0.00  0.00    -0.321 OA
BRANCH   9  10
ATOM     10  C1   11 d         -14.301 207.996 115.372  0.00  0.00     0.259 C 
ATOM     11  O1   11 d         -15.023 209.019 115.270  0.00  0.00    -0.265 OA
BRANCH  10  12
ATOM     12  C14  11 d         -13.417 207.538 114.236  0.00  0.00     0.120 C 
BRANCH  12  13
ATOM     13  C15  11 d         -14.073 206.929 112.962  0.00  0.00    -0.031 C 
ATOM     14  C16  11 d         -14.820 205.617 113.364  0.00  0.00     0.014 C 
ATOM     15  C17  11 d         -15.494 204.962 112.134  0.00  0.00    -0.013 C 
ATOM     16  C18  11 d         -14.417 204.616 111.081  0.00  0.00     0.009 C 
ATOM     17  C24  11 d         -16.514 205.950 111.522  0.00  0.00     0.009 C 
ATOM     18  C19  11 d         -13.685 205.907 110.651  0.00  0.00    -0.013 C 
ATOM     19  C20  11 d         -13.008 206.551 111.884  0.00  0.00     0.014 C 
ATOM     20  C21  11 d         -14.701 206.902 110.044  0.00  0.00     0.009 C 
ATOM     21  C22  11 d         -15.786 207.244 111.093  0.00  0.00    -0.013 C 
ATOM     22  C23  11 d         -15.121 207.896 112.330  0.00  0.00     0.014 C 
ENDBRANCH  12  13
ENDBRANCH  10  12
ENDBRANCH   9  10
ENDBRANCH   8   9
ENDBRANCH   7   8
ENDBRANCH   1   7
BRANCH   3  23
ATOM     23  C7   11 d          -7.544 207.551 118.573  0.00  0.00     0.172 C 
BRANCH  23  24
ATOM     24  C8   11 d          -6.980 208.838 119.154  0.00  0.00     0.023 A 
ATOM     25  C9   11 d          -5.999 209.581 118.447  0.00  0.00     0.132 A 
ATOM     26  N2   11 d          -5.557 210.769 118.947  0.00  0.00    -0.216 NA
ATOM     27  C10  11 d          -6.038 211.283 120.111  0.00  0.00     0.124 A 
ATOM     28  N3   11 d          -6.908 210.546 120.852  0.00  0.00    -0.245 NA
ATOM     29  C12  11 d          -5.462 212.546 120.664  0.00  0.00     0.093 C 
ATOM     30  C11  11 d          -7.388 209.355 120.401  0.00  0.00     0.131 A 
BRANCH  25  31
ATOM     31  N4   11 d          -5.458 209.177 117.242  0.00  0.00    -0.383 N 
ATOM     32  H12  11 d          -5.557 208.248 116.906  0.00  0.00     0.157 HD
ATOM     33  H13  11 d          -4.951 209.828 116.687  0.00  0.00     0.157 HD
ENDBRANCH  25  31
ENDBRANCH  23  24
ENDBRANCH   3  23
TORSDOF 9
ENDMDL
MODEL 10
REMARK VINA RESULT:      -8.0      1.130      2.023
REMARK  9 active torsions:
REMARK  status: ('A' for Active; 'I' for Inactive)
REMARK    1  A    between atoms: C1_1  and  O2_3 
REMARK    2  A    between atoms: C1_1  and  C14_21 
REMARK    3  A    between atoms: O2_3  and  C2_4 
REMARK    4  A    between atoms: C2_4  and  C3_5 
REMARK    5  A    between atoms: C3_5  and  C4_6 
REMARK    6  A    between atoms: N1_8  and  C7_11 
REMARK    7  A    between atoms: C7_11  and  C8_12 
REMARK    8  A    between atoms: C9_13  and  N4_19 
REMARK    9  A    between atoms: C14_21  and  C15_22 
ROOT
ATOM      1  C4   11 d         -10.774 207.549 115.180  0.00  0.00     0.008 A 
ATOM      2  C5   11 d          -9.631 208.298 115.516  0.00  0.00     0.021 A 
ATOM      3  N1   11 d          -9.167 208.971 114.411  0.00  0.00    -0.349 N 
ATOM      4  C6   11 d          -9.953 208.726 113.331  0.00  0.00     0.141 A 
ATOM      5  S1   11 d         -11.058 207.807 113.731  0.00  0.00    -0.087 SA
ATOM      6  C13  11 d          -9.091 208.483 116.912  0.00  0.00     0.069 C 
ENDROOT
BRANCH   1   7
ATOM      7  C3   11 d         -11.653 206.717 116.095  0.00  0.00     0.075 C 
BRANCH   7   8
ATOM      8  C2   11 d         -12.532 207.508 117.070  0.00  0.00     0.183 C 
BRANCH   8   9
ATOM      9  O2   11 d         -13.906 207.049 116.993  0.00  0.00    -0.321 OA
BRANCH   9  10
ATOM     10  C1   11 d         -14.522 207.575 115.826  0.00  0.00     0.259 C 
ATOM     11  O1   11 d         -14.452 208.810 115.608  0.00  0.00    -0.265 OA
BRANCH  10  12
ATOM     12  C14  11 d         -15.434 206.683 115.017  0.00  0.00     0.120 C 
BRANCH  12  13
ATOM     13  C15  11 d         -15.155 206.491 113.498  0.00  0.00    -0.031 C 
ATOM     14  C16  11 d         -13.976 205.479 113.330  0.00  0.00     0.014 C 
ATOM     15  C17  11 d         -13.651 205.247 111.835  0.00  0.00    -0.013 C 
ATOM     16  C18  11 d         -13.247 206.589 111.183  0.00  0.00     0.009 C 
ATOM     17  C24  11 d         -14.900 204.682 111.120  0.00  0.00     0.009 C 
ATOM     18  C19  11 d         -14.413 207.596 111.316  0.00  0.00    -0.013 C 
ATOM     19  C20  11 d         -14.727 207.827 112.813  0.00  0.00     0.014 C 
ATOM     20  C21  11 d         -15.667 207.033 110.607  0.00  0.00     0.009 C 
ATOM     21  C22  11 d         -16.069 205.685 111.252  0.00  0.00    -0.013 C 
ATOM     22  C23  11 d         -16.392 205.905 112.750  0.00  0.00     0.014 C 
ENDBRANCH  12  13
ENDBRANCH  10  12
ENDBRANCH   9  10
ENDBRANCH   8   9
ENDBRANCH   7   8
ENDBRANCH   1   7
BRANCH   3  23
ATOM     23  C7   11 d          -7.953 209.810 114.326  0.00  0.00     0.172 C 
BRANCH  23  24
ATOM     24  C8   11 d          -6.628 209.081 114.174  0.00  0.00     0.023 A 
ATOM     25  C9   11 d          -6.160 208.693 112.891  0.00  0.00     0.132 A 
ATOM     26  N2   11 d          -4.936 208.105 112.765  0.00  0.00    -0.216 NA
ATOM     27  C10  11 d          -4.130 207.886 113.838  0.00  0.00     0.124 A 
ATOM     28  N3   11 d          -4.595 208.164 115.085  0.00  0.00    -0.245 NA
ATOM     29  C12  11 d          -2.834 207.162 113.663  0.00  0.00     0.093 C 
ATOM     30  C11  11 d          -5.807 208.756 115.273  0.00  0.00     0.131 A 
BRANCH  25  31
ATOM     31  N4   11 d          -6.875 208.890 111.726  0.00  0.00    -0.383 N 
ATOM     32  H12  11 d          -7.751 209.356 111.720  0.00  0.00     0.157 HD
ATOM     33  H13  11 d          -6.510 208.559 110.862  0.00  0.00     0.157 HD
ENDBRANCH  25  31
ENDBRANCH  23  24
ENDBRANCH   3  23
TORSDOF 9
ENDMDL
MODEL 11
REMARK VINA RESULT:      -7.7      4.507      7.906
REMARK  9 active torsions:
REMARK  status: ('A' for Active; 'I' for Inactive)
REMARK    1  A    between atoms: C1_1  and  O2_3 
REMARK    2  A    between atoms: C1_1  and  C14_21 
REMARK    3  A    between atoms: O2_3  and  C2_4 
REMARK    4  A    between atoms: C2_4  and  C3_5 
REMARK    5  A    between atoms: C3_5  and  C4_6 
REMARK    6  A    between atoms: N1_8  and  C7_11 
REMARK    7  A    between atoms: C7_11  and  C8_12 
REMARK    8  A    between atoms: C9_13  and  N4_19 
REMARK    9  A    between atoms: C14_21  and  C15_22 
ROOT
ATOM      1  C4   11 d         -12.502 207.257 117.661  0.00  0.00     0.008 A 
ATOM      2  C5   11 d         -12.476 206.302 118.695  0.00  0.00     0.021 A 
ATOM      3  N1   11 d         -13.712 205.713 118.822  0.00  0.00    -0.349 N 
ATOM      4  C6   11 d         -14.582 206.213 117.909  0.00  0.00     0.141 A 
ATOM      5  S1   11 d         -13.882 207.233 117.076  0.00  0.00    -0.087 SA
ATOM      6  C13  11 d         -11.242 205.858 119.441  0.00  0.00     0.069 C 
ENDROOT
BRANCH   1   7
ATOM      7  C3   11 d         -11.353 208.090 117.126  0.00  0.00     0.075 C 
BRANCH   7   8
ATOM      8  C2   11 d         -10.515 207.434 116.023  0.00  0.00     0.183 C 
BRANCH   8   9
ATOM      9  O2   11 d         -11.374 206.729 115.092  0.00  0.00    -0.321 OA
BRANCH   9  10
ATOM     10  C1   11 d         -11.658 207.562 113.976  0.00  0.00     0.259 C 
ATOM     11  O1   11 d         -10.705 208.120 113.378  0.00  0.00    -0.265 OA
BRANCH  10  12
ATOM     12  C14  11 d         -13.094 207.936 113.693  0.00  0.00     0.120 C 
BRANCH  12  13
ATOM     13  C15  11 d         -13.905 207.102 112.658  0.00  0.00    -0.031 C 
ATOM     14  C16  11 d         -15.268 207.822 112.396  0.00  0.00     0.014 C 
ATOM     15  C17  11 d         -16.123 207.037 111.373  0.00  0.00    -0.013 C 
ATOM     16  C18  11 d         -16.408 205.620 111.921  0.00  0.00     0.009 C 
ATOM     17  C24  11 d         -15.350 206.927 110.037  0.00  0.00     0.009 C 
ATOM     18  C19  11 d         -15.071 204.883 112.161  0.00  0.00    -0.013 C 
ATOM     19  C20  11 d         -14.226 205.670 113.190  0.00  0.00     0.014 C 
ATOM     20  C21  11 d         -14.292 204.775 110.830  0.00  0.00     0.009 C 
ATOM     21  C22  11 d         -14.012 206.192 110.273  0.00  0.00    -0.013 C 
ATOM     22  C23  11 d         -13.160 206.987 111.293  0.00  0.00     0.014 C 
ENDBRANCH  12  13
ENDBRANCH  10  12
ENDBRANCH   9  10
ENDBRANCH   8   9
ENDBRANCH   7   8
ENDBRANCH   1   7
BRANCH   3  23
ATOM     23  C7   11 d         -14.120 204.713 119.832  0.00  0.00     0.172 C 
BRANCH  23  24
ATOM     24  C8   11 d         -15.298 205.081 120.720  0.00  0.00     0.023 A 
ATOM     25  C9   11 d         -16.453 204.258 120.766  0.00  0.00     0.132 A 
ATOM     26  N2   11 d         -17.470 204.563 121.622  0.00  0.00    -0.216 NA
ATOM     27  C10  11 d         -17.411 205.636 122.455  0.00  0.00     0.124 A 
ATOM     28  N3   11 d         -16.357 206.490 122.363  0.00  0.00    -0.245 NA
ATOM     29  C12  11 d         -18.585 205.979 123.314  0.00  0.00     0.093 C 
ATOM     30  C11  11 d         -15.311 206.235 121.531  0.00  0.00     0.131 A 
BRANCH  25  31
ATOM     31  N4   11 d         -16.615 203.126 119.991  0.00  0.00    -0.383 N 
ATOM     32  H12  11 d         -17.260 203.093 119.237  0.00  0.00     0.157 HD
ATOM     33  H13  11 d         -16.075 202.314 120.186  0.00  0.00     0.157 HD
ENDBRANCH  25  31
ENDBRANCH  23  24
ENDBRANCH   3  23
TORSDOF 9
ENDMDL
MODEL 12
REMARK VINA RESULT:      -7.6      2.786      4.510
REMARK  9 active torsions:
REMARK  status: ('A' for Active; 'I' for Inactive)
REMARK    1  A    between atoms: C1_1  and  O2_3 
REMARK    2  A    between atoms: C1_1  and  C14_21 
REMARK    3  A    between atoms: O2_3  and  C2_4 
REMARK    4  A    between atoms: C2_4  and  C3_5 
REMARK    5  A    between atoms: C3_5  and  C4_6 
REMARK    6  A    between atoms: N1_8  and  C7_11 
REMARK    7  A    between atoms: C7_11  and  C8_12 
REMARK    8  A    between atoms: C9_13  and  N4_19 
REMARK    9  A    between atoms: C14_21  and  C15_22 
ROOT
ATOM      1  C4   11 d          -7.300 209.321 113.805  0.00  0.00     0.008 A 
ATOM      2  C5   11 d          -6.097 209.565 114.494  0.00  0.00     0.021 A 
ATOM      3  N1   11 d          -5.048 208.968 113.836  0.00  0.00    -0.349 N 
ATOM      4  C6   11 d          -5.478 208.334 112.715  0.00  0.00     0.141 A 
ATOM      5  S1   11 d          -6.953 208.516 112.588  0.00  0.00    -0.087 SA
ATOM      6  C13  11 d          -5.944 210.488 115.677  0.00  0.00     0.069 C 
ENDROOT
BRANCH   1   7
ATOM      7  C3   11 d          -8.687 209.844 114.125  0.00  0.00     0.075 C 
BRANCH   7   8
ATOM      8  C2   11 d          -9.511 208.989 115.094  0.00  0.00     0.183 C 
BRANCH   8   9
ATOM      9  O2   11 d         -10.891 208.918 114.652  0.00  0.00    -0.321 OA
BRANCH   9  10
ATOM     10  C1   11 d         -11.357 207.580 114.751  0.00  0.00     0.259 C 
ATOM     11  O1   11 d         -11.475 207.061 115.889  0.00  0.00    -0.265 OA
BRANCH  10  12
ATOM     12  C14  11 d         -11.470 206.752 113.493  0.00  0.00     0.120 C 
BRANCH  12  13
ATOM     13  C15  11 d         -12.869 206.548 112.841  0.00  0.00    -0.031 C 
ATOM     14  C16  11 d         -13.674 207.882 112.959  0.00  0.00     0.014 C 
ATOM     15  C17  11 d         -15.079 207.740 112.327  0.00  0.00    -0.013 C 
ATOM     16  C18  11 d         -15.861 206.624 113.057  0.00  0.00     0.009 C 
ATOM     17  C24  11 d         -14.935 207.373 110.832  0.00  0.00     0.009 C 
ATOM     18  C19  11 d         -15.092 205.290 112.929  0.00  0.00    -0.013 C 
ATOM     19  C20  11 d         -13.691 205.438 113.569  0.00  0.00     0.014 C 
ATOM     20  C21  11 d         -14.939 204.921 111.435  0.00  0.00     0.009 C 
ATOM     21  C22  11 d         -14.165 206.040 110.699  0.00  0.00    -0.013 C 
ATOM     22  C23  11 d         -12.758 206.193 111.326  0.00  0.00     0.014 C 
ENDBRANCH  12  13
ENDBRANCH  10  12
ENDBRANCH   9  10
ENDBRANCH   8   9
ENDBRANCH   7   8
ENDBRANCH   1   7
BRANCH   3  23
ATOM     23  C7   11 d          -3.634 208.930 114.268  0.00  0.00     0.172 C 
BRANCH  23  24
ATOM     24  C8   11 d          -3.316 208.083 115.489  0.00  0.00     0.023 A 
ATOM     25  C9   11 d          -3.160 206.677 115.374  0.00  0.00     0.132 A 
ATOM     26  N2   11 d          -2.803 205.942 116.465  0.00  0.00    -0.216 NA
ATOM     27  C10  11 d          -2.575 206.517 117.676  0.00  0.00     0.124 A 
ATOM     28  N3   11 d          -2.809 207.848 117.833  0.00  0.00    -0.245 NA
ATOM     29  C12  11 d          -2.269 205.662 118.863  0.00  0.00     0.093 C 
ATOM     30  C11  11 d          -3.162 208.633 116.779  0.00  0.00     0.131 A 
BRANCH  25  31
ATOM     31  N4   11 d          -3.334 205.985 114.191  0.00  0.00    -0.383 N 
ATOM     32  H12  11 d          -2.566 205.657 113.656  0.00  0.00     0.157 HD
ATOM     33  H13  11 d          -4.253 205.805 113.857  0.00  0.00     0.157 HD
ENDBRANCH  25  31
ENDBRANCH  23  24
ENDBRANCH   3  23
TORSDOF 9
ENDMDL
MODEL 13
REMARK VINA RESULT:      -7.6      1.975      3.566
REMARK  9 active torsions:
REMARK  status: ('A' for Active; 'I' for Inactive)
REMARK    1  A    between atoms: C1_1  and  O2_3 
REMARK    2  A    between atoms: C1_1  and  C14_21 
REMARK    3  A    between atoms: O2_3  and  C2_4 
REMARK    4  A    between atoms: C2_4  and  C3_5 
REMARK    5  A    between atoms: C3_5  and  C4_6 
REMARK    6  A    between atoms: N1_8  and  C7_11 
REMARK    7  A    between atoms: C7_11  and  C8_12 
REMARK    8  A    between atoms: C9_13  and  N4_19 
REMARK    9  A    between atoms: C14_21  and  C15_22 
ROOT
ATOM      1  C4   11 d          -8.170 208.861 115.480  0.00  0.00     0.008 A 
ATOM      2  C5   11 d          -6.871 208.832 116.022  0.00  0.00     0.021 A 
ATOM      3  N1   11 d          -5.947 209.122 115.045  0.00  0.00    -0.349 N 
ATOM      4  C6   11 d          -6.559 209.363 113.858  0.00  0.00     0.141 A 
ATOM      5  S1   11 d          -8.035 209.233 114.034  0.00  0.00    -0.087 SA
ATOM      6  C13  11 d          -6.541 208.680 117.486  0.00  0.00     0.069 C 
ENDROOT
BRANCH   1   7
ATOM      7  C3   11 d          -9.492 208.675 116.202  0.00  0.00     0.075 C 
BRANCH   7   8
ATOM      8  C2   11 d         -10.745 208.760 115.323  0.00  0.00     0.183 C 
BRANCH   8   9
ATOM      9  O2   11 d         -11.703 207.744 115.716  0.00  0.00    -0.321 OA
BRANCH   9  10
ATOM     10  C1   11 d         -12.881 207.868 114.932  0.00  0.00     0.259 C 
ATOM     11  O1   11 d         -13.999 207.765 115.496  0.00  0.00    -0.265 OA
BRANCH  10  12
ATOM     12  C14  11 d         -12.756 207.883 113.427  0.00  0.00     0.120 C 
BRANCH  12  13
ATOM     13  C15  11 d         -13.782 207.083 112.572  0.00  0.00    -0.031 C 
ATOM     14  C16  11 d         -13.206 206.914 111.129  0.00  0.00     0.014 C 
ATOM     15  C17  11 d         -14.186 206.124 110.229  0.00  0.00    -0.013 C 
ATOM     16  C18  11 d         -15.529 206.884 110.140  0.00  0.00     0.009 C 
ATOM     17  C24  11 d         -14.426 204.723 110.838  0.00  0.00     0.009 C 
ATOM     18  C19  11 d         -16.128 207.037 111.557  0.00  0.00    -0.013 C 
ATOM     19  C20  11 d         -15.146 207.833 112.448  0.00  0.00     0.014 C 
ATOM     20  C21  11 d         -16.364 205.639 112.174  0.00  0.00     0.009 C 
ATOM     21  C22  11 d         -15.023 204.872 112.256  0.00  0.00    -0.013 C 
ATOM     22  C23  11 d         -14.033 205.657 113.152  0.00  0.00     0.014 C 
ENDBRANCH  12  13
ENDBRANCH  10  12
ENDBRANCH   9  10
ENDBRANCH   8   9
ENDBRANCH   7   8
ENDBRANCH   1   7
BRANCH   3  23
ATOM     23  C7   11 d          -4.476 209.126 115.188  0.00  0.00     0.172 C 
BRANCH  23  24
ATOM     24  C8   11 d          -3.666 209.055 113.903  0.00  0.00     0.023 A 
ATOM     25  C9   11 d          -3.225 207.806 113.394  0.00  0.00     0.132 A 
ATOM     26  N2   11 d          -2.563 207.754 112.203  0.00  0.00    -0.216 NA
ATOM     27  C10  11 d          -2.317 208.872 111.468  0.00  0.00     0.124 A 
ATOM     28  N3   11 d          -2.647 210.088 111.979  0.00  0.00    -0.245 NA
ATOM     29  C12  11 d          -1.513 208.777 110.212  0.00  0.00     0.093 C 
ATOM     30  C11  11 d          -3.313 210.201 113.161  0.00  0.00     0.131 A 
BRANCH  25  31
ATOM     31  N4   11 d          -3.442 206.602 114.034  0.00  0.00    -0.383 N 
ATOM     32  H12  11 d          -4.061 205.917 113.669  0.00  0.00     0.157 HD
ATOM     33  H13  11 d          -2.970 206.405 114.887  0.00  0.00     0.157 HD
ENDBRANCH  25  31
ENDBRANCH  23  24
ENDBRANCH   3  23
TORSDOF 9
ENDMDL
MODEL 14
REMARK VINA RESULT:      -7.5      2.926      4.272
REMARK  9 active torsions:
REMARK  status: ('A' for Active; 'I' for Inactive)
REMARK    1  A    between atoms: C1_1  and  O2_3 
REMARK    2  A    between atoms: C1_1  and  C14_21 
REMARK    3  A    between atoms: O2_3  and  C2_4 
REMARK    4  A    between atoms: C2_4  and  C3_5 
REMARK    5  A    between atoms: C3_5  and  C4_6 
REMARK    6  A    between atoms: N1_8  and  C7_11 
REMARK    7  A    between atoms: C7_11  and  C8_12 
REMARK    8  A    between atoms: C9_13  and  N4_19 
REMARK    9  A    between atoms: C14_21  and  C15_22 
ROOT
ATOM      1  C4   11 d          -8.255 208.847 115.583  0.00  0.00     0.008 A 
ATOM      2  C5   11 d          -7.525 208.530 116.744  0.00  0.00     0.021 A 
ATOM      3  N1   11 d          -6.206 208.882 116.581  0.00  0.00    -0.349 N 
ATOM      4  C6   11 d          -6.002 209.440 115.361  0.00  0.00     0.141 A 
ATOM      5  S1   11 d          -7.296 209.481 114.620  0.00  0.00    -0.087 SA
ATOM      6  C13  11 d          -8.121 208.042 118.041  0.00  0.00     0.069 C 
ENDROOT
BRANCH   1   7
ATOM      7  C3   11 d          -9.746 208.702 115.344  0.00  0.00     0.075 C 
BRANCH   7   8
ATOM      8  C2   11 d         -10.189 208.730 113.877  0.00  0.00     0.183 C 
BRANCH   8   9
ATOM      9  O2   11 d         -10.383 207.379 113.385  0.00  0.00    -0.321 OA
BRANCH   9  10
ATOM     10  C1   11 d         -11.508 206.794 114.026  0.00  0.00     0.259 C 
ATOM     11  O1   11 d         -11.375 205.674 114.581  0.00  0.00    -0.265 OA
BRANCH  10  12
ATOM     12  C14  11 d         -12.869 207.415 113.820  0.00  0.00     0.120 C 
BRANCH  12  13
ATOM     13  C15  11 d         -13.819 206.821 112.739  0.00  0.00    -0.031 C 
ATOM     14  C16  11 d         -12.987 206.536 111.447  0.00  0.00     0.014 C 
ATOM     15  C17  11 d         -13.881 205.942 110.331  0.00  0.00    -0.013 C 
ATOM     16  C18  11 d         -15.006 206.945 109.986  0.00  0.00     0.009 C 
ATOM     17  C24  11 d         -14.506 204.617 110.826  0.00  0.00     0.009 C 
ATOM     18  C19  11 d         -15.856 207.219 111.247  0.00  0.00    -0.013 C 
ATOM     19  C20  11 d         -14.957 207.818 112.355  0.00  0.00     0.014 C 
ATOM     20  C21  11 d         -16.479 205.896 111.750  0.00  0.00     0.009 C 
ATOM     21  C22  11 d         -15.356 204.886 112.089  0.00  0.00    -0.013 C 
ATOM     22  C23  11 d         -14.453 205.473 113.202  0.00  0.00     0.014 C 
ENDBRANCH  12  13
ENDBRANCH  10  12
ENDBRANCH   9  10
ENDBRANCH   8   9
ENDBRANCH   7   8
ENDBRANCH   1   7
BRANCH   3  23
ATOM     23  C7   11 d          -5.101 208.655 117.537  0.00  0.00     0.172 C 
BRANCH  23  24
ATOM     24  C8   11 d          -4.010 207.690 117.103  0.00  0.00     0.023 A 
ATOM     25  C9   11 d          -4.210 206.288 117.184  0.00  0.00     0.132 A 
ATOM     26  N2   11 d          -3.250 205.437 116.722  0.00  0.00    -0.216 NA
ATOM     27  C10  11 d          -2.095 205.890 116.166  0.00  0.00     0.124 A 
ATOM     28  N3   11 d          -1.840 207.226 116.162  0.00  0.00    -0.245 NA
ATOM     29  C12  11 d          -1.035 204.921 115.752  0.00  0.00     0.093 C 
ATOM     30  C11  11 d          -2.763 208.123 116.605  0.00  0.00     0.131 A 
BRANCH  25  31
ATOM     31  N4   11 d          -5.354 205.709 117.700  0.00  0.00    -0.383 N 
ATOM     32  H12  11 d          -5.464 205.540 118.672  0.00  0.00     0.157 HD
ATOM     33  H13  11 d          -6.093 205.450 117.088  0.00  0.00     0.157 HD
ENDBRANCH  25  31
ENDBRANCH  23  24
ENDBRANCH   3  23
TORSDOF 9
ENDMDL
MODEL 15
REMARK VINA RESULT:      -7.4      3.680      9.423
REMARK  9 active torsions:
REMARK  status: ('A' for Active; 'I' for Inactive)
REMARK    1  A    between atoms: C1_1  and  O2_3 
REMARK    2  A    between atoms: C1_1  and  C14_21 
REMARK    3  A    between atoms: O2_3  and  C2_4 
REMARK    4  A    between atoms: C2_4  and  C3_5 
REMARK    5  A    between atoms: C3_5  and  C4_6 
REMARK    6  A    between atoms: N1_8  and  C7_11 
REMARK    7  A    between atoms: C7_11  and  C8_12 
REMARK    8  A    between atoms: C9_13  and  N4_19 
REMARK    9  A    between atoms: C14_21  and  C15_22 
ROOT
ATOM      1  C4   11 d         -10.087 208.788 114.570  0.00  0.00     0.008 A 
ATOM      2  C5   11 d         -10.669 207.690 113.910  0.00  0.00     0.021 A 
ATOM      3  N1   11 d         -11.573 207.067 114.738  0.00  0.00    -0.349 N 
ATOM      4  C6   11 d         -11.646 207.701 115.936  0.00  0.00     0.141 A 
ATOM      5  S1   11 d         -10.714 208.865 115.930  0.00  0.00    -0.087 SA
ATOM      6  C13  11 d         -10.471 207.344 112.455  0.00  0.00     0.069 C 
ENDROOT
BRANCH   1   7
ATOM      7  C3   11 d          -9.098 209.798 114.019  0.00  0.00     0.075 C 
BRANCH   7   8
ATOM      8  C2   11 d          -7.619 209.418 114.148  0.00  0.00     0.183 C 
BRANCH   8   9
ATOM      9  O2   11 d          -7.249 209.310 115.547  0.00  0.00    -0.321 OA
BRANCH   9  10
ATOM     10  C1   11 d          -6.202 210.226 115.837  0.00  0.00     0.259 C 
ATOM     11  O1   11 d          -6.142 211.303 115.192  0.00  0.00    -0.265 OA
BRANCH  10  12
ATOM     12  C14  11 d          -5.071 209.780 116.732  0.00  0.00     0.120 C 
BRANCH  12  13
ATOM     13  C15  11 d          -4.105 208.664 116.237  0.00  0.00    -0.031 C 
ATOM     14  C16  11 d          -4.789 207.277 116.462  0.00  0.00     0.014 C 
ATOM     15  C17  11 d          -3.873 206.122 115.988  0.00  0.00    -0.013 C 
ATOM     16  C18  11 d          -2.549 206.157 116.784  0.00  0.00     0.009 C 
ATOM     17  C24  11 d          -3.573 206.293 114.480  0.00  0.00     0.009 C 
ATOM     18  C19  11 d          -1.844 207.513 116.551  0.00  0.00    -0.013 C 
ATOM     19  C20  11 d          -2.763 208.660 117.034  0.00  0.00     0.014 C 
ATOM     20  C21  11 d          -1.547 207.691 115.044  0.00  0.00     0.009 C 
ATOM     21  C22  11 d          -2.871 207.649 114.243  0.00  0.00    -0.013 C 
ATOM     22  C23  11 d          -3.796 208.798 114.714  0.00  0.00     0.014 C 
ENDBRANCH  12  13
ENDBRANCH  10  12
ENDBRANCH   9  10
ENDBRANCH   8   9
ENDBRANCH   7   8
ENDBRANCH   1   7
BRANCH   3  23
ATOM     23  C7   11 d         -12.344 205.840 114.448  0.00  0.00     0.172 C 
BRANCH  23  24
ATOM     24  C8   11 d         -13.642 206.015 113.676  0.00  0.00     0.023 A 
ATOM     25  C9   11 d         -14.872 206.194 114.360  0.00  0.00     0.132 A 
ATOM     26  N2   11 d         -16.015 206.423 113.653  0.00  0.00    -0.216 NA
ATOM     27  C10  11 d         -16.017 206.499 112.295  0.00  0.00     0.124 A 
ATOM     28  N3   11 d         -14.869 206.239 111.614  0.00  0.00    -0.245 NA
ATOM     29  C12  11 d         -17.307 206.666 111.559  0.00  0.00     0.093 C 
ATOM     30  C11  11 d         -13.697 206.009 112.267  0.00  0.00     0.131 A 
BRANCH  25  31
ATOM     31  N4   11 d         -14.990 206.168 115.736  0.00  0.00    -0.383 N 
ATOM     32  H12  11 d         -15.451 206.889 116.238  0.00  0.00     0.157 HD
ATOM     33  H13  11 d         -14.604 205.408 116.249  0.00  0.00     0.157 HD
ENDBRANCH  25  31
ENDBRANCH  23  24
ENDBRANCH   3  23
TORSDOF 9
ENDMDL
MODEL 16
REMARK VINA RESULT:      -7.3      2.564      4.131
REMARK  9 active torsions:
REMARK  status: ('A' for Active; 'I' for Inactive)
REMARK    1  A    between atoms: C1_1  and  O2_3 
REMARK    2  A    between atoms: C1_1  and  C14_21 
REMARK    3  A    between atoms: O2_3  and  C2_4 
REMARK    4  A    between atoms: C2_4  and  C3_5 
REMARK    5  A    between atoms: C3_5  and  C4_6 
REMARK    6  A    between atoms: N1_8  and  C7_11 
REMARK    7  A    between atoms: C7_11  and  C8_12 
REMARK    8  A    between atoms: C9_13  and  N4_19 
REMARK    9  A    between atoms: C14_21  and  C15_22 
ROOT
ATOM      1  C4   11 d          -8.001 206.382 119.891  0.00  0.00     0.008 A 
ATOM      2  C5   11 d          -7.970 207.650 119.280  0.00  0.00     0.021 A 
ATOM      3  N1   11 d          -6.985 207.687 118.321  0.00  0.00    -0.349 N 
ATOM      4  C6   11 d          -6.347 206.492 118.238  0.00  0.00     0.141 A 
ATOM      5  S1   11 d          -6.949 205.547 119.222  0.00  0.00    -0.087 SA
ATOM      6  C13  11 d          -8.974 208.752 119.511  0.00  0.00     0.069 C 
ENDROOT
BRANCH   1   7
ATOM      7  C3   11 d          -8.966 205.871 120.943  0.00  0.00     0.075 C 
BRANCH   7   8
ATOM      8  C2   11 d         -10.433 205.776 120.507  0.00  0.00     0.183 C 
BRANCH   8   9
ATOM      9  O2   11 d         -10.518 205.497 119.086  0.00  0.00    -0.321 OA
BRANCH   9  10
ATOM     10  C1   11 d         -11.642 206.167 118.534  0.00  0.00     0.259 C 
ATOM     11  O1   11 d         -12.030 207.238 119.062  0.00  0.00    -0.265 OA
BRANCH  10  12
ATOM     12  C14  11 d         -12.471 205.458 117.489  0.00  0.00     0.120 C 
BRANCH  12  13
ATOM     13  C15  11 d         -12.653 206.116 116.090  0.00  0.00    -0.031 C 
ATOM     14  C16  11 d         -12.502 207.664 116.243  0.00  0.00     0.014 C 
ATOM     15  C17  11 d         -12.675 208.377 114.880  0.00  0.00    -0.013 C 
ATOM     16  C18  11 d         -14.080 208.071 114.315  0.00  0.00     0.009 C 
ATOM     17  C24  11 d         -11.599 207.865 113.894  0.00  0.00     0.009 C 
ATOM     18  C19  11 d         -14.239 206.545 114.131  0.00  0.00    -0.013 C 
ATOM     19  C20  11 d         -14.072 205.841 115.498  0.00  0.00     0.014 C 
ATOM     20  C21  11 d         -13.162 206.026 113.150  0.00  0.00     0.009 C 
ATOM     21  C22  11 d         -11.753 206.338 113.709  0.00  0.00    -0.013 C 
ATOM     22  C23  11 d         -11.572 205.633 115.075  0.00  0.00     0.014 C 
ENDBRANCH  12  13
ENDBRANCH  10  12
ENDBRANCH   9  10
ENDBRANCH   8   9
ENDBRANCH   7   8
ENDBRANCH   1   7
BRANCH   3  23
ATOM     23  C7   11 d          -6.584 208.852 117.504  0.00  0.00     0.172 C 
BRANCH  23  24
ATOM     24  C8   11 d          -6.700 208.700 115.996  0.00  0.00     0.023 A 
ATOM     25  C9   11 d          -7.948 208.877 115.345  0.00  0.00     0.132 A 
ATOM     26  N2   11 d          -8.020 208.810 113.985  0.00  0.00    -0.216 NA
ATOM     27  C10  11 d          -6.920 208.588 113.217  0.00  0.00     0.124 A 
ATOM     28  N3   11 d          -5.731 208.323 113.822  0.00  0.00    -0.245 NA
ATOM     29  C12  11 d          -7.061 208.437 111.737  0.00  0.00     0.093 C 
ATOM     30  C11  11 d          -5.598 208.381 115.175  0.00  0.00     0.131 A 
BRANCH  25  31
ATOM     31  N4   11 d          -9.128 209.137 116.015  0.00  0.00    -0.383 N 
ATOM     32  H12  11 d          -9.742 208.411 116.298  0.00  0.00     0.157 HD
ATOM     33  H13  11 d          -9.379 210.077 116.224  0.00  0.00     0.157 HD
ENDBRANCH  25  31
ENDBRANCH  23  24
ENDBRANCH   3  23
TORSDOF 9
ENDMDL
MODEL 17
REMARK VINA RESULT:      -7.3      7.534     11.226
REMARK  9 active torsions:
REMARK  status: ('A' for Active; 'I' for Inactive)
REMARK    1  A    between atoms: C1_1  and  O2_3 
REMARK    2  A    between atoms: C1_1  and  C14_21 
REMARK    3  A    between atoms: O2_3  and  C2_4 
REMARK    4  A    between atoms: C2_4  and  C3_5 
REMARK    5  A    between atoms: C3_5  and  C4_6 
REMARK    6  A    between atoms: N1_8  and  C7_11 
REMARK    7  A    between atoms: C7_11  and  C8_12 
REMARK    8  A    between atoms: C9_13  and  N4_19 
REMARK    9  A    between atoms: C14_21  and  C15_22 
ROOT
ATOM      1  C4   11 d         -16.880 203.419 119.853  0.00  0.00     0.008 A 
ATOM      2  C5   11 d         -18.199 203.802 120.159  0.00  0.00     0.021 A 
ATOM      3  N1   11 d         -18.213 204.586 121.289  0.00  0.00    -0.349 N 
ATOM      4  C6   11 d         -16.955 204.768 121.764  0.00  0.00     0.141 A 
ATOM      5  S1   11 d         -15.990 204.052 120.881  0.00  0.00    -0.087 SA
ATOM      6  C13  11 d         -19.404 203.545 119.289  0.00  0.00     0.069 C 
ENDROOT
BRANCH   1   7
ATOM      7  C3   11 d         -16.387 202.619 118.662  0.00  0.00     0.075 C 
BRANCH   7   8
ATOM      8  C2   11 d         -14.988 202.982 118.152  0.00  0.00     0.183 C 
BRANCH   8   9
ATOM      9  O2   11 d         -15.040 204.199 117.364  0.00  0.00    -0.321 OA
BRANCH   9  10
ATOM     10  C1   11 d         -13.922 205.018 117.674  0.00  0.00     0.259 C 
ATOM     11  O1   11 d         -14.026 205.863 118.599  0.00  0.00    -0.265 OA
BRANCH  10  12
ATOM     12  C14  11 d         -12.735 205.015 116.740  0.00  0.00     0.120 C 
BRANCH  12  13
ATOM     13  C15  11 d         -12.710 206.008 115.542  0.00  0.00    -0.031 C 
ATOM     14  C16  11 d         -11.461 205.691 114.657  0.00  0.00     0.014 C 
ATOM     15  C17  11 d         -11.381 206.650 113.445  0.00  0.00    -0.013 C 
ATOM     16  C18  11 d         -11.273 208.107 113.949  0.00  0.00     0.009 C 
ATOM     17  C24  11 d         -12.657 206.496 112.584  0.00  0.00     0.009 C 
ATOM     18  C19  11 d         -12.514 208.448 114.805  0.00  0.00    -0.013 C 
ATOM     19  C20  11 d         -12.583 207.490 116.018  0.00  0.00     0.014 C 
ATOM     20  C21  11 d         -13.793 208.290 113.951  0.00  0.00     0.009 C 
ATOM     21  C22  11 d         -13.900 206.834 113.437  0.00  0.00    -0.013 C 
ATOM     22  C23  11 d         -13.977 205.866 114.643  0.00  0.00     0.014 C 
ENDBRANCH  12  13
ENDBRANCH  10  12
ENDBRANCH   9  10
ENDBRANCH   8   9
ENDBRANCH   7   8
ENDBRANCH   1   7
BRANCH   3  23
ATOM     23  C7   11 d         -19.401 205.132 121.977  0.00  0.00     0.172 C 
BRANCH  23  24
ATOM     24  C8   11 d         -19.697 204.588 123.365  0.00  0.00     0.023 A 
ATOM     25  C9   11 d         -20.352 203.339 123.527  0.00  0.00     0.132 A 
ATOM     26  N2   11 d         -20.544 202.832 124.778  0.00  0.00    -0.216 NA
ATOM     27  C10  11 d         -20.114 203.482 125.892  0.00  0.00     0.124 A 
ATOM     28  N3   11 d         -19.568 204.721 125.768  0.00  0.00    -0.245 NA
ATOM     29  C12  11 d         -20.422 202.929 127.246  0.00  0.00     0.093 C 
ATOM     30  C11  11 d         -19.347 205.277 124.545  0.00  0.00     0.131 A 
BRANCH  25  31
ATOM     31  N4   11 d         -20.806 202.573 122.472  0.00  0.00    -0.383 N 
ATOM     32  H12  11 d         -21.609 202.826 121.946  0.00  0.00     0.157 HD
ATOM     33  H13  11 d         -20.322 201.740 122.224  0.00  0.00     0.157 HD
ENDBRANCH  25  31
ENDBRANCH  23  24
ENDBRANCH   3  23
TORSDOF 9
ENDMDL
MODEL 18
REMARK VINA RESULT:      -7.2      3.451      4.169
REMARK  9 active torsions:
REMARK  status: ('A' for Active; 'I' for Inactive)
REMARK    1  A    between atoms: C1_1  and  O2_3 
REMARK    2  A    between atoms: C1_1  and  C14_21 
REMARK    3  A    between atoms: O2_3  and  C2_4 
REMARK    4  A    between atoms: C2_4  and  C3_5 
REMARK    5  A    between atoms: C3_5  and  C4_6 
REMARK    6  A    between atoms: N1_8  and  C7_11 
REMARK    7  A    between atoms: C7_11  and  C8_12 
REMARK    8  A    between atoms: C9_13  and  N4_19 
REMARK    9  A    between atoms: C14_21  and  C15_22 
ROOT
ATOM      1  C4   11 d         -11.092 206.492 117.926  0.00  0.00     0.008 A 
ATOM      2  C5   11 d         -10.385 206.530 119.142  0.00  0.00     0.021 A 
ATOM      3  N1   11 d          -9.610 207.664 119.201  0.00  0.00    -0.349 N 
ATOM      4  C6   11 d          -9.765 208.414 118.080  0.00  0.00     0.141 A 
ATOM      5  S1   11 d         -10.737 207.739 117.172  0.00  0.00    -0.087 SA
ATOM      6  C13  11 d         -10.576 205.571 120.290  0.00  0.00     0.069 C 
ENDROOT
BRANCH   1   7
ATOM      7  C3   11 d         -12.114 205.470 117.466  0.00  0.00     0.075 C 
BRANCH   7   8
ATOM      8  C2   11 d         -13.541 205.998 117.276  0.00  0.00     0.183 C 
BRANCH   8   9
ATOM      9  O2   11 d         -13.841 206.136 115.864  0.00  0.00    -0.321 OA
BRANCH   9  10
ATOM     10  C1   11 d         -14.027 207.508 115.546  0.00  0.00     0.259 C 
ATOM     11  O1   11 d         -14.570 208.259 116.395  0.00  0.00    -0.265 OA
BRANCH  10  12
ATOM     12  C14  11 d         -13.787 207.967 114.127  0.00  0.00     0.120 C 
BRANCH  12  13
ATOM     13  C15  11 d         -14.382 207.139 112.951  0.00  0.00    -0.031 C 
ATOM     14  C16  11 d         -14.782 208.120 111.802  0.00  0.00     0.014 C 
ATOM     15  C17  11 d         -15.383 207.353 110.600  0.00  0.00    -0.013 C 
ATOM     16  C18  11 d         -16.645 206.586 111.059  0.00  0.00     0.009 C 
ATOM     17  C24  11 d         -14.339 206.349 110.059  0.00  0.00     0.009 C 
ATOM     18  C19  11 d         -16.263 205.591 112.178  0.00  0.00    -0.013 C 
ATOM     19  C20  11 d         -15.670 206.366 113.377  0.00  0.00     0.014 C 
ATOM     20  C21  11 d         -15.214 204.588 111.643  0.00  0.00     0.009 C 
ATOM     21  C22  11 d         -13.953 205.352 111.175  0.00  0.00    -0.013 C 
ATOM     22  C23  11 d         -13.346 206.128 112.371  0.00  0.00     0.014 C 
ENDBRANCH  12  13
ENDBRANCH  10  12
ENDBRANCH   9  10
ENDBRANCH   8   9
ENDBRANCH   7   8
ENDBRANCH   1   7
BRANCH   3  23
ATOM     23  C7   11 d          -8.669 208.043 120.277  0.00  0.00     0.172 C 
BRANCH  23  24
ATOM     24  C8   11 d          -7.287 208.506 119.845  0.00  0.00     0.023 A 
ATOM     25  C9   11 d          -6.365 207.593 119.271  0.00  0.00     0.132 A 
ATOM     26  N2   11 d          -5.159 208.040 118.821  0.00  0.00    -0.216 NA
ATOM     27  C10  11 d          -4.805 209.351 118.892  0.00  0.00     0.124 A 
ATOM     28  N3   11 d          -5.633 210.228 119.521  0.00  0.00    -0.245 NA
ATOM     29  C12  11 d          -3.439 209.780 118.465  0.00  0.00     0.093 C 
ATOM     30  C11  11 d          -6.852 209.840 119.985  0.00  0.00     0.131 A 
BRANCH  25  31
ATOM     31  N4   11 d          -6.622 206.244 119.117  0.00  0.00    -0.383 N 
ATOM     32  H12  11 d          -6.135 205.689 118.455  0.00  0.00     0.157 HD
ATOM     33  H13  11 d          -7.315 205.808 119.682  0.00  0.00     0.157 HD
ENDBRANCH  25  31
ENDBRANCH  23  24
ENDBRANCH   3  23
TORSDOF 9
ENDMDL
MODEL 19
REMARK VINA RESULT:      -7.1      3.458      5.005
REMARK  9 active torsions:
REMARK  status: ('A' for Active; 'I' for Inactive)
REMARK    1  A    between atoms: C1_1  and  O2_3 
REMARK    2  A    between atoms: C1_1  and  C14_21 
REMARK    3  A    between atoms: O2_3  and  C2_4 
REMARK    4  A    between atoms: C2_4  and  C3_5 
REMARK    5  A    between atoms: C3_5  and  C4_6 
REMARK    6  A    between atoms: N1_8  and  C7_11 
REMARK    7  A    between atoms: C7_11  and  C8_12 
REMARK    8  A    between atoms: C9_13  and  N4_19 
REMARK    9  A    between atoms: C14_21  and  C15_22 
ROOT
ATOM      1  C4   11 d         -11.202 207.623 117.886  0.00  0.00     0.008 A 
ATOM      2  C5   11 d         -10.123 207.001 118.542  0.00  0.00     0.021 A 
ATOM      3  N1   11 d          -8.933 207.445 118.014  0.00  0.00    -0.349 N 
ATOM      4  C6   11 d          -9.150 208.356 117.032  0.00  0.00     0.141 A 
ATOM      5  S1   11 d         -10.618 208.562 116.874  0.00  0.00    -0.087 SA
ATOM      6  C13  11 d         -10.236 206.115 119.757  0.00  0.00     0.069 C 
ENDROOT
BRANCH   1   7
ATOM      7  C3   11 d         -12.683 207.491 118.186  0.00  0.00     0.075 C 
BRANCH   7   8
ATOM      8  C2   11 d         -13.547 206.957 117.038  0.00  0.00     0.183 C 
BRANCH   8   9
ATOM      9  O2   11 d         -12.916 205.801 116.430  0.00  0.00    -0.321 OA
BRANCH   9  10
ATOM     10  C1   11 d         -12.460 206.136 115.127  0.00  0.00     0.259 C 
ATOM     11  O1   11 d         -11.344 205.704 114.744  0.00  0.00    -0.265 OA
BRANCH  10  12
ATOM     12  C14  11 d         -13.211 207.183 114.338  0.00  0.00     0.120 C 
BRANCH  12  13
ATOM     13  C15  11 d         -14.030 206.749 113.088  0.00  0.00    -0.031 C 
ATOM     14  C16  11 d         -13.087 205.959 112.123  0.00  0.00     0.014 C 
ATOM     15  C17  11 d         -13.847 205.500 110.856  0.00  0.00    -0.013 C 
ATOM     16  C18  11 d         -14.396 206.737 110.109  0.00  0.00     0.009 C 
ATOM     17  C24  11 d         -15.023 204.583 111.267  0.00  0.00     0.009 C 
ATOM     18  C19  11 d         -15.353 207.517 111.040  0.00  0.00    -0.013 C 
ATOM     19  C20  11 d         -14.584 207.978 112.300  0.00  0.00     0.014 C 
ATOM     20  C21  11 d         -16.527 206.602 111.459  0.00  0.00     0.009 C 
ATOM     21  C22  11 d         -15.981 205.358 112.200  0.00  0.00    -0.013 C 
ATOM     22  C23  11 d         -15.214 205.808 113.468  0.00  0.00     0.014 C 
ENDBRANCH  12  13
ENDBRANCH  10  12
ENDBRANCH   9  10
ENDBRANCH   8   9
ENDBRANCH   7   8
ENDBRANCH   1   7
BRANCH   3  23
ATOM     23  C7   11 d          -7.575 206.987 118.377  0.00  0.00     0.172 C 
BRANCH  23  24
ATOM     24  C8   11 d          -6.882 207.733 119.507  0.00  0.00     0.023 A 
ATOM     25  C9   11 d          -6.548 207.067 120.715  0.00  0.00     0.132 A 
ATOM     26  N2   11 d          -5.862 207.731 121.688  0.00  0.00    -0.216 NA
ATOM     27  C10  11 d          -5.470 209.024 121.537  0.00  0.00     0.124 A 
ATOM     28  N3   11 d          -5.859 209.710 120.429  0.00  0.00    -0.245 NA
ATOM     29  C12  11 d          -4.795 209.736 122.664  0.00  0.00     0.093 C 
ATOM     30  C11  11 d          -6.540 209.098 119.422  0.00  0.00     0.131 A 
BRANCH  25  31
ATOM     31  N4   11 d          -6.866 205.747 120.971  0.00  0.00    -0.383 N 
ATOM     32  H12  11 d          -7.111 205.433 121.880  0.00  0.00     0.157 HD
ATOM     33  H13  11 d          -6.849 205.084 120.230  0.00  0.00     0.157 HD
ENDBRANCH  25  31
ENDBRANCH  23  24
ENDBRANCH   3  23
TORSDOF 9
ENDMDL
MODEL 20
REMARK VINA RESULT:      -7.0      2.549      4.247
REMARK  9 active torsions:
REMARK  status: ('A' for Active; 'I' for Inactive)
REMARK    1  A    between atoms: C1_1  and  O2_3 
REMARK    2  A    between atoms: C1_1  and  C14_21 
REMARK    3  A    between atoms: O2_3  and  C2_4 
REMARK    4  A    between atoms: C2_4  and  C3_5 
REMARK    5  A    between atoms: C3_5  and  C4_6 
REMARK    6  A    between atoms: N1_8  and  C7_11 
REMARK    7  A    between atoms: C7_11  and  C8_12 
REMARK    8  A    between atoms: C9_13  and  N4_19 
REMARK    9  A    between atoms: C14_21  and  C15_22 
ROOT
ATOM      1  C4   11 d          -7.594 207.814 119.787  0.00  0.00     0.008 A 
ATOM      2  C5   11 d          -6.708 207.563 118.723  0.00  0.00     0.021 A 
ATOM      3  N1   11 d          -6.056 208.721 118.369  0.00  0.00    -0.349 N 
ATOM      4  C6   11 d          -6.449 209.755 119.156  0.00  0.00     0.141 A 
ATOM      5  S1   11 d          -7.454 209.264 120.142  0.00  0.00    -0.087 SA
ATOM      6  C13  11 d          -6.382 206.200 118.163  0.00  0.00     0.069 C 
ENDROOT
BRANCH   1   7
ATOM      7  C3   11 d          -8.458 206.822 120.542  0.00  0.00     0.075 C 
BRANCH   7   8
ATOM      8  C2   11 d          -9.735 206.373 119.824  0.00  0.00     0.183 C 
BRANCH   8   9
ATOM      9  O2   11 d         -10.209 207.422 118.941  0.00  0.00    -0.321 OA
BRANCH   9  10
ATOM     10  C1   11 d         -11.438 207.027 118.346  0.00  0.00     0.259 C 
ATOM     11  O1   11 d         -12.508 207.236 118.968  0.00  0.00    -0.265 OA
BRANCH  10  12
ATOM     12  C14  11 d         -11.403 206.166 117.105  0.00  0.00     0.120 C 
BRANCH  12  13
ATOM     13  C15  11 d         -12.339 206.517 115.911  0.00  0.00    -0.031 C 
ATOM     14  C16  11 d         -11.735 205.904 114.607  0.00  0.00     0.014 C 
ATOM     15  C17  11 d         -12.624 206.221 113.381  0.00  0.00    -0.013 C 
ATOM     16  C18  11 d         -12.730 207.753 113.205  0.00  0.00     0.009 C 
ATOM     17  C24  11 d         -14.035 205.629 113.604  0.00  0.00     0.009 C 
ATOM     18  C19  11 d         -13.351 208.375 114.477  0.00  0.00    -0.013 C 
ATOM     19  C20  11 d         -12.453 208.059 115.696  0.00  0.00     0.014 C 
ATOM     20  C21  11 d         -14.761 207.782 114.708  0.00  0.00     0.009 C 
ATOM     21  C22  11 d         -14.659 206.247 114.876  0.00  0.00    -0.013 C 
ATOM     22  C23  11 d         -13.767 205.919 116.099  0.00  0.00     0.014 C 
ENDBRANCH  12  13
ENDBRANCH  10  12
ENDBRANCH   9  10
ENDBRANCH   8   9
ENDBRANCH   7   8
ENDBRANCH   1   7
BRANCH   3  23
ATOM     23  C7   11 d          -5.099 208.898 117.257  0.00  0.00     0.172 C 
BRANCH  23  24
ATOM     24  C8   11 d          -5.670 208.843 115.849  0.00  0.00     0.023 A 
ATOM     25  C9   11 d          -4.846 208.492 114.748  0.00  0.00     0.132 A 
ATOM     26  N2   11 d          -5.391 208.376 113.503  0.00  0.00    -0.216 NA
ATOM     27  C10  11 d          -6.716 208.576 113.277  0.00  0.00     0.124 A 
ATOM     28  N3   11 d          -7.507 209.004 114.297  0.00  0.00    -0.245 NA
ATOM     29  C12  11 d          -7.252 208.522 111.883  0.00  0.00     0.093 C 
ATOM     30  C11  11 d          -7.020 209.133 115.562  0.00  0.00     0.131 A 
BRANCH  25  31
ATOM     31  N4   11 d          -3.494 208.235 114.858  0.00  0.00    -0.383 N 
ATOM     32  H12  11 d          -3.149 207.396 115.260  0.00  0.00     0.157 HD
ATOM     33  H13  11 d          -2.837 208.905 114.529  0.00  0.00     0.157 HD
ENDBRANCH  25  31
ENDBRANCH  23  24
ENDBRANCH   3  23
TORSDOF 9
ENDMDL
