MODEL 1
REMARK VINA RESULT:      -8.9      0.000      0.000
REMARK  4 active torsions:
REMARK  status: ('A' for Active; 'I' for Inactive)
REMARK    1  A    between atoms: C8_10  and  N1_11 
REMARK    2  A    between atoms: N1_11  and  C9_12 
REMARK    3  A    between atoms: N1_11  and  C11_14 
REMARK    4  A    between atoms: C19_24  and  O3_25 
ROOT
ATOM      1  C1   11 d          -8.175 208.835 114.006  0.00  0.00     0.095 A 
ATOM      2  C2   11 d          -8.099 208.598 112.615  0.00  0.00     0.303 A 
ATOM      3  O1   11 d          -7.029 208.788 111.986  0.00  0.00    -0.259 OA
ATOM      4  O2   11 d          -9.154 208.148 111.957  0.00  0.00    -0.274 OA
ATOM      5  C3   11 d         -10.324 207.903 112.521  0.00  0.00     0.091 A 
ATOM      6  C4   11 d         -10.508 208.140 113.903  0.00  0.00    -0.001 A 
ATOM      7  C5   11 d          -9.412 208.611 114.645  0.00  0.00     0.036 A 
ATOM      8  C6   11 d         -11.761 207.888 114.495  0.00  0.00     0.016 A 
ATOM      9  C7   11 d         -12.813 207.381 113.715  0.00  0.00     0.030 A 
ATOM     10  C8   11 d         -12.621 207.116 112.346  0.00  0.00     0.032 A 
ATOM     11  C13  11 d         -11.377 207.391 111.751  0.00  0.00     0.067 A 
ATOM     12  C14  11 d          -7.001 209.271 114.801  0.00  0.00     0.209 A 
ATOM     13  N2   11 d          -5.783 209.585 114.313  0.00  0.00    -0.121 NA
ATOM     14  N3   11 d          -5.026 209.849 115.333  0.00  0.00    -0.121 NA
ATOM     15  C15  11 d          -5.792 209.693 116.433  0.00  0.00     0.203 A 
ATOM     16  C16  11 d          -5.326 209.836 117.832  0.00  0.00     0.019 A 
ATOM     17  C17  11 d          -3.970 210.109 118.113  0.00  0.00     0.018 A 
ATOM     18  C18  11 d          -3.525 210.202 119.441  0.00  0.00     0.037 A 
ATOM     19  C19  11 d          -4.421 209.999 120.503  0.00  0.00     0.068 A 
ATOM     20  C21  11 d          -5.781 209.780 120.230  0.00  0.00     0.037 A 
ATOM     21  C22  11 d          -6.230 209.683 118.904  0.00  0.00     0.018 A 
ATOM     22  O4   11 d          -7.011 209.347 116.108  0.00  0.00    -0.268 OA
ENDROOT
BRANCH  10  23
ATOM     23  N1   11 d         -13.639 206.578 111.576  0.00  0.00    -0.382 N 
BRANCH  23  24
ATOM     24  C9   11 d         -14.541 205.649 112.173  0.00  0.00     0.118 C 
ATOM     25  C10  11 d         -14.589 204.315 111.426  0.00  0.00     0.026 C 
ENDBRANCH  23  24
BRANCH  23  26
ATOM     26  C11  11 d         -13.745 206.938 110.204  0.00  0.00     0.118 C 
ATOM     27  C12  11 d         -15.146 207.422 109.835  0.00  0.00     0.026 C 
ENDBRANCH  23  26
ENDBRANCH  10  23
BRANCH  19  28
ATOM     28  O3   11 d          -3.979 210.153 121.843  0.00  0.00    -0.356 OA
ATOM     29  C20  11 d          -4.742 211.208 122.482  0.00  0.00     0.210 C 
ENDBRANCH  19  28
TORSDOF 4
ENDMDL
MODEL 2
REMARK VINA RESULT:      -8.7      2.845      3.780
REMARK  4 active torsions:
REMARK  status: ('A' for Active; 'I' for Inactive)
REMARK    1  A    between atoms: C8_10  and  N1_11 
REMARK    2  A    between atoms: N1_11  and  C9_12 
REMARK    3  A    between atoms: N1_11  and  C11_14 
REMARK    4  A    between atoms: C19_24  and  O3_25 
ROOT
ATOM      1  C1   11 d         -10.928 207.718 117.015  0.00  0.00     0.095 A 
ATOM      2  C2   11 d         -12.283 207.518 117.363  0.00  0.00     0.303 A 
ATOM      3  O1   11 d         -12.658 207.581 118.560  0.00  0.00    -0.259 OA
ATOM      4  O2   11 d         -13.184 207.282 116.425  0.00  0.00    -0.274 OA
ATOM      5  C3   11 d         -12.901 207.206 115.136  0.00  0.00     0.091 A 
ATOM      6  C4   11 d         -11.568 207.360 114.692  0.00  0.00    -0.001 A 
ATOM      7  C5   11 d         -10.577 207.620 115.653  0.00  0.00     0.036 A 
ATOM      8  C6   11 d         -11.272 207.266 113.319  0.00  0.00     0.016 A 
ATOM      9  C7   11 d         -12.306 207.042 112.395  0.00  0.00     0.030 A 
ATOM     10  C8   11 d         -13.638 206.919 112.833  0.00  0.00     0.032 A 
ATOM     11  C13  11 d         -13.928 206.989 114.207  0.00  0.00     0.067 A 
ATOM     12  C14  11 d          -9.893 208.056 118.023  0.00  0.00     0.209 A 
ATOM     13  N2   11 d         -10.074 208.115 119.359  0.00  0.00    -0.121 NA
ATOM     14  N3   11 d          -8.948 208.506 119.874  0.00  0.00    -0.121 NA
ATOM     15  C15  11 d          -8.093 208.682 118.845  0.00  0.00     0.203 A 
ATOM     16  C16  11 d          -6.703 209.180 118.957  0.00  0.00     0.019 A 
ATOM     17  C17  11 d          -6.180 209.571 120.209  0.00  0.00     0.018 A 
ATOM     18  C18  11 d          -4.877 210.082 120.305  0.00  0.00     0.037 A 
ATOM     19  C19  11 d          -4.090 210.234 119.152  0.00  0.00     0.068 A 
ATOM     20  C21  11 d          -4.585 209.798 117.913  0.00  0.00     0.037 A 
ATOM     21  C22  11 d          -5.889 209.290 117.812  0.00  0.00     0.018 A 
ATOM     22  O4   11 d          -8.670 208.395 117.706  0.00  0.00    -0.268 OA
ENDROOT
BRANCH  10  23
ATOM     23  N1   11 d         -14.671 206.739 111.928  0.00  0.00    -0.382 N 
BRANCH  23  24
ATOM     24  C9   11 d         -14.357 206.405 110.578  0.00  0.00     0.118 C 
ATOM     25  C10  11 d         -14.871 207.446 109.582  0.00  0.00     0.026 C 
ENDBRANCH  23  24
BRANCH  23  26
ATOM     26  C11  11 d         -16.016 206.918 112.355  0.00  0.00     0.118 C 
ATOM     27  C12  11 d         -16.883 205.692 112.077  0.00  0.00     0.026 C 
ENDBRANCH  23  26
ENDBRANCH  10  23
BRANCH  19  28
ATOM     28  O3   11 d          -2.752 210.696 119.262  0.00  0.00    -0.356 OA
ATOM     29  C20  11 d          -2.621 211.507 120.457  0.00  0.00     0.210 C 
ENDBRANCH  19  28
TORSDOF 4
ENDMDL
MODEL 3
REMARK VINA RESULT:      -8.4      7.340      9.331
REMARK  4 active torsions:
REMARK  status: ('A' for Active; 'I' for Inactive)
REMARK    1  A    between atoms: C8_10  and  N1_11 
REMARK    2  A    between atoms: N1_11  and  C9_12 
REMARK    3  A    between atoms: N1_11  and  C11_14 
REMARK    4  A    between atoms: C19_24  and  O3_25 
ROOT
ATOM      1  C1   11 d         -13.365 206.302 118.069  0.00  0.00     0.095 A 
ATOM      2  C2   11 d         -12.052 206.057 117.607  0.00  0.00     0.303 A 
ATOM      3  O1   11 d         -11.137 205.734 118.404  0.00  0.00    -0.259 OA
ATOM      4  O2   11 d         -11.772 206.144 116.318  0.00  0.00    -0.274 OA
ATOM      5  C3   11 d         -12.660 206.464 115.392  0.00  0.00     0.091 A 
ATOM      6  C4   11 d         -13.993 206.758 115.760  0.00  0.00    -0.001 A 
ATOM      7  C5   11 d         -14.339 206.671 117.119  0.00  0.00     0.036 A 
ATOM      8  C6   11 d         -14.931 207.110 114.770  0.00  0.00     0.016 A 
ATOM      9  C7   11 d         -14.542 207.145 113.421  0.00  0.00     0.030 A 
ATOM     10  C8   11 d         -13.223 206.822 113.051  0.00  0.00     0.032 A 
ATOM     11  C13  11 d         -12.282 206.495 114.043  0.00  0.00     0.067 A 
ATOM     12  C14  11 d         -13.744 206.147 119.495  0.00  0.00     0.209 A 
ATOM     13  N2   11 d         -12.906 205.866 120.515  0.00  0.00    -0.121 NA
ATOM     14  N3   11 d         -13.637 205.751 121.581  0.00  0.00    -0.121 NA
ATOM     15  C15  11 d         -14.914 205.964 121.199  0.00  0.00     0.203 A 
ATOM     16  C16  11 d         -16.101 205.875 122.080  0.00  0.00     0.019 A 
ATOM     17  C17  11 d         -15.964 205.492 123.433  0.00  0.00     0.018 A 
ATOM     18  C18  11 d         -17.096 205.368 124.253  0.00  0.00     0.037 A 
ATOM     19  C19  11 d         -18.378 205.600 123.729  0.00  0.00     0.068 A 
ATOM     20  C21  11 d         -18.516 206.032 122.400  0.00  0.00     0.037 A 
ATOM     21  C22  11 d         -17.388 206.153 121.575  0.00  0.00     0.018 A 
ATOM     22  O4   11 d         -14.981 206.218 119.918  0.00  0.00    -0.268 OA
ENDROOT
BRANCH  10  23
ATOM     23  N1   11 d         -12.839 206.814 111.720  0.00  0.00    -0.382 N 
BRANCH  23  24
ATOM     24  C9   11 d         -11.477 207.078 111.392  0.00  0.00     0.118 C 
ATOM     25  C10  11 d         -11.294 207.486 109.929  0.00  0.00     0.026 C 
ENDBRANCH  23  24
BRANCH  23  26
ATOM     26  C11  11 d         -13.813 206.574 110.711  0.00  0.00     0.118 C 
ATOM     27  C12  11 d         -14.311 205.130 110.716  0.00  0.00     0.026 C 
ENDBRANCH  23  26
ENDBRANCH  10  23
BRANCH  19  28
ATOM     28  O3   11 d         -19.514 205.531 124.578  0.00  0.00    -0.356 OA
ATOM     29  C20  11 d         -20.017 204.171 124.598  0.00  0.00     0.210 C 
ENDBRANCH  19  28
TORSDOF 4
ENDMDL
MODEL 4
REMARK VINA RESULT:      -8.4      3.214      4.112
REMARK  4 active torsions:
REMARK  status: ('A' for Active; 'I' for Inactive)
REMARK    1  A    between atoms: C8_10  and  N1_11 
REMARK    2  A    between atoms: N1_11  and  C9_12 
REMARK    3  A    between atoms: N1_11  and  C11_14 
REMARK    4  A    between atoms: C19_24  and  O3_25 
ROOT
ATOM      1  C1   11 d         -10.644 207.149 117.525  0.00  0.00     0.095 A 
ATOM      2  C2   11 d         -11.706 206.222 117.628  0.00  0.00     0.303 A 
ATOM      3  O1   11 d         -11.988 205.684 118.727  0.00  0.00    -0.259 OA
ATOM      4  O2   11 d         -12.436 205.924 116.566  0.00  0.00    -0.274 OA
ATOM      5  C3   11 d         -12.234 206.440 115.366  0.00  0.00     0.091 A 
ATOM      6  C4   11 d         -11.175 207.353 115.156  0.00  0.00    -0.001 A 
ATOM      7  C5   11 d         -10.378 207.706 116.257  0.00  0.00     0.036 A 
ATOM      8  C6   11 d         -10.958 207.889 113.872  0.00  0.00     0.016 A 
ATOM      9  C7   11 d         -11.808 207.532 112.813  0.00  0.00     0.030 A 
ATOM     10  C8   11 d         -12.882 206.647 113.029  0.00  0.00     0.032 A 
ATOM     11  C13  11 d         -13.082 206.094 114.305  0.00  0.00     0.067 A 
ATOM     12  C14  11 d          -9.844 207.570 118.701  0.00  0.00     0.209 A 
ATOM     13  N2   11 d          -9.946 207.074 119.951  0.00  0.00    -0.121 NA
ATOM     14  N3   11 d          -9.123 207.750 120.693  0.00  0.00    -0.121 NA
ATOM     15  C15  11 d          -8.528 208.653 119.885  0.00  0.00     0.203 A 
ATOM     16  C16  11 d          -7.552 209.681 120.316  0.00  0.00     0.019 A 
ATOM     17  C17  11 d          -7.208 209.816 121.679  0.00  0.00     0.018 A 
ATOM     18  C18  11 d          -6.315 210.818 122.088  0.00  0.00     0.037 A 
ATOM     19  C19  11 d          -5.775 211.712 121.149  0.00  0.00     0.068 A 
ATOM     20  C21  11 d          -6.073 211.549 119.786  0.00  0.00     0.037 A 
ATOM     21  C22  11 d          -6.968 210.551 119.373  0.00  0.00     0.018 A 
ATOM     22  O4   11 d          -8.963 208.537 118.657  0.00  0.00    -0.268 OA
ENDROOT
BRANCH  10  23
ATOM     23  N1   11 d         -13.751 206.320 112.001  0.00  0.00    -0.382 N 
BRANCH  23  24
ATOM     24  C9   11 d         -13.665 207.031 110.769  0.00  0.00     0.118 C 
ATOM     25  C10  11 d         -15.023 207.551 110.295  0.00  0.00     0.026 C 
ENDBRANCH  23  24
BRANCH  23  26
ATOM     26  C11  11 d         -14.728 205.306 112.206  0.00  0.00     0.118 C 
ATOM     27  C12  11 d         -14.552 204.126 111.252  0.00  0.00     0.026 C 
ENDBRANCH  23  26
ENDBRANCH  10  23
BRANCH  19  28
ATOM     28  O3   11 d          -4.827 212.686 121.559  0.00  0.00    -0.356 OA
ATOM     29  C20  11 d          -3.565 212.438 120.890  0.00  0.00     0.210 C 
ENDBRANCH  19  28
TORSDOF 4
ENDMDL
MODEL 5
REMARK VINA RESULT:      -8.2      2.236     10.038
REMARK  4 active torsions:
REMARK  status: ('A' for Active; 'I' for Inactive)
REMARK    1  A    between atoms: C8_10  and  N1_11 
REMARK    2  A    between atoms: N1_11  and  C9_12 
REMARK    3  A    between atoms: N1_11  and  C11_14 
REMARK    4  A    between atoms: C19_24  and  O3_25 
ROOT
ATOM      1  C1   11 d          -6.813 209.115 114.988  0.00  0.00     0.095 A 
ATOM      2  C2   11 d          -5.613 209.861 115.003  0.00  0.00     0.303 A 
ATOM      3  O1   11 d          -5.086 210.257 113.934  0.00  0.00    -0.259 OA
ATOM      4  O2   11 d          -5.037 210.174 116.151  0.00  0.00    -0.274 OA
ATOM      5  C3   11 d          -5.511 209.819 117.333  0.00  0.00     0.091 A 
ATOM      6  C4   11 d          -6.691 209.044 117.420  0.00  0.00    -0.001 A 
ATOM      7  C5   11 d          -7.342 208.695 116.225  0.00  0.00     0.036 A 
ATOM      8  C6   11 d          -7.183 208.659 118.681  0.00  0.00     0.016 A 
ATOM      9  C7   11 d          -6.515 209.068 119.847  0.00  0.00     0.030 A 
ATOM     10  C8   11 d          -5.358 209.866 119.762  0.00  0.00     0.032 A 
ATOM     11  C13  11 d          -4.854 210.228 118.501  0.00  0.00     0.067 A 
ATOM     12  C14  11 d          -7.535 208.802 113.730  0.00  0.00     0.209 A 
ATOM     13  N2   11 d          -7.113 209.083 112.480  0.00  0.00    -0.121 NA
ATOM     14  N3   11 d          -8.056 208.707 111.671  0.00  0.00    -0.121 NA
ATOM     15  C15  11 d          -9.044 208.201 112.439  0.00  0.00     0.203 A 
ATOM     16  C16  11 d         -10.348 207.702 111.943  0.00  0.00     0.019 A 
ATOM     17  C17  11 d         -10.670 207.778 110.570  0.00  0.00     0.018 A 
ATOM     18  C18  11 d         -11.923 207.343 110.111  0.00  0.00     0.037 A 
ATOM     19  C19  11 d         -12.876 206.851 111.017  0.00  0.00     0.068 A 
ATOM     20  C21  11 d         -12.543 206.724 112.375  0.00  0.00     0.037 A 
ATOM     21  C22  11 d         -11.292 207.162 112.839  0.00  0.00     0.018 A 
ATOM     22  O4   11 d          -8.721 208.249 113.705  0.00  0.00    -0.268 OA
ENDROOT
BRANCH  10  23
ATOM     23  N1   11 d          -4.713 210.308 120.905  0.00  0.00    -0.382 N 
BRANCH  23  24
ATOM     24  C9   11 d          -4.213 211.642 120.944  0.00  0.00     0.118 C 
ATOM     25  C10  11 d          -5.330 212.687 120.944  0.00  0.00     0.026 C 
ENDBRANCH  23  24
BRANCH  23  26
ATOM     26  C11  11 d          -4.537 209.417 122.000  0.00  0.00     0.118 C 
ATOM     27  C12  11 d          -5.340 209.839 123.229  0.00  0.00     0.026 C 
ENDBRANCH  23  26
ENDBRANCH  10  23
BRANCH  19  28
ATOM     28  O3   11 d         -14.119 206.357 110.540  0.00  0.00    -0.356 OA
ATOM     29  C20  11 d         -14.831 207.423 109.861  0.00  0.00     0.210 C 
ENDBRANCH  19  28
TORSDOF 4
ENDMDL
MODEL 6
REMARK VINA RESULT:      -7.9      5.646      6.419
REMARK  4 active torsions:
REMARK  status: ('A' for Active; 'I' for Inactive)
REMARK    1  A    between atoms: C8_10  and  N1_11 
REMARK    2  A    between atoms: N1_11  and  C9_12 
REMARK    3  A    between atoms: N1_11  and  C11_14 
REMARK    4  A    between atoms: C19_24  and  O3_25 
ROOT
ATOM      1  C1   11 d         -11.478 206.713 117.647  0.00  0.00     0.095 A 
ATOM      2  C2   11 d         -10.897 207.444 116.586  0.00  0.00     0.303 A 
ATOM      3  O1   11 d          -9.799 208.035 116.734  0.00  0.00    -0.259 OA
ATOM      4  O2   11 d         -11.495 207.497 115.407  0.00  0.00    -0.274 OA
ATOM      5  C3   11 d         -12.645 206.903 115.138  0.00  0.00     0.091 A 
ATOM      6  C4   11 d         -13.319 206.174 116.145  0.00  0.00    -0.001 A 
ATOM      7  C5   11 d         -12.718 206.084 117.411  0.00  0.00     0.036 A 
ATOM      8  C6   11 d         -14.550 205.555 115.855  0.00  0.00     0.016 A 
ATOM      9  C7   11 d         -15.089 205.644 114.562  0.00  0.00     0.030 A 
ATOM     10  C8   11 d         -14.403 206.343 113.551  0.00  0.00     0.032 A 
ATOM     11  C13  11 d         -13.186 206.982 113.849  0.00  0.00     0.067 A 
ATOM     12  C14  11 d         -10.811 206.565 118.964  0.00  0.00     0.209 A 
ATOM     13  N2   11 d          -9.664 207.162 119.346  0.00  0.00    -0.121 NA
ATOM     14  N3   11 d          -9.389 206.723 120.536  0.00  0.00    -0.121 NA
ATOM     15  C15  11 d         -10.373 205.860 120.866  0.00  0.00     0.203 A 
ATOM     16  C16  11 d         -10.441 205.071 122.118  0.00  0.00     0.019 A 
ATOM     17  C17  11 d          -9.399 205.141 123.067  0.00  0.00     0.018 A 
ATOM     18  C18  11 d          -9.447 204.360 124.233  0.00  0.00     0.037 A 
ATOM     19  C19  11 d         -10.521 203.483 124.452  0.00  0.00     0.068 A 
ATOM     20  C21  11 d         -11.586 203.449 123.538  0.00  0.00     0.037 A 
ATOM     21  C22  11 d         -11.541 204.225 122.369  0.00  0.00     0.018 A 
ATOM     22  O4   11 d         -11.255 205.769 119.904  0.00  0.00    -0.268 OA
ENDROOT
BRANCH  10  23
ATOM     23  N1   11 d         -14.905 206.404 112.261  0.00  0.00    -0.382 N 
BRANCH  23  24
ATOM     24  C9   11 d         -15.938 205.499 111.878  0.00  0.00     0.118 C 
ATOM     25  C10  11 d         -17.305 206.177 111.779  0.00  0.00     0.026 C 
ENDBRANCH  23  24
BRANCH  23  26
ATOM     26  C11  11 d         -14.362 207.343 111.341  0.00  0.00     0.118 C 
ATOM     27  C12  11 d         -14.213 206.762 109.936  0.00  0.00     0.026 C 
ENDBRANCH  23  26
ENDBRANCH  10  23
BRANCH  19  28
ATOM     28  O3   11 d         -10.596 202.740 125.659  0.00  0.00    -0.356 OA
ATOM     29  C20  11 d         -11.984 202.603 126.054  0.00  0.00     0.210 C 
ENDBRANCH  19  28
TORSDOF 4
ENDMDL
MODEL 7
REMARK VINA RESULT:      -7.9      7.596     11.306
REMARK  4 active torsions:
REMARK  status: ('A' for Active; 'I' for Inactive)
REMARK    1  A    between atoms: C8_10  and  N1_11 
REMARK    2  A    between atoms: N1_11  and  C9_12 
REMARK    3  A    between atoms: N1_11  and  C11_14 
REMARK    4  A    between atoms: C19_24  and  O3_25 
ROOT
ATOM      1  C1   11 d         -13.453 205.428 118.851  0.00  0.00     0.095 A 
ATOM      2  C2   11 d         -12.752 205.751 120.035  0.00  0.00     0.303 A 
ATOM      3  O1   11 d         -11.592 206.232 119.986  0.00  0.00    -0.259 OA
ATOM      4  O2   11 d         -13.318 205.572 121.216  0.00  0.00    -0.274 OA
ATOM      5  C3   11 d         -14.535 205.084 121.382  0.00  0.00     0.091 A 
ATOM      6  C4   11 d         -15.305 204.701 120.258  0.00  0.00    -0.001 A 
ATOM      7  C5   11 d         -14.746 204.881 118.982  0.00  0.00     0.036 A 
ATOM      8  C6   11 d         -16.596 204.171 120.443  0.00  0.00     0.016 A 
ATOM      9  C7   11 d         -17.122 204.048 121.739  0.00  0.00     0.030 A 
ATOM     10  C8   11 d         -16.369 204.458 122.855  0.00  0.00     0.032 A 
ATOM     11  C13  11 d         -15.070 204.964 122.671  0.00  0.00     0.067 A 
ATOM     12  C14  11 d         -12.888 205.677 117.503  0.00  0.00     0.209 A 
ATOM     13  N2   11 d         -11.647 206.130 117.232  0.00  0.00    -0.121 NA
ATOM     14  N3   11 d         -11.571 206.274 115.944  0.00  0.00    -0.121 NA
ATOM     15  C15  11 d         -12.770 205.907 115.444  0.00  0.00     0.203 A 
ATOM     16  C16  11 d         -13.159 205.965 114.016  0.00  0.00     0.019 A 
ATOM     17  C17  11 d         -12.269 206.483 113.050  0.00  0.00     0.018 A 
ATOM     18  C18  11 d         -12.658 206.574 111.704  0.00  0.00     0.037 A 
ATOM     19  C19  11 d         -13.946 206.175 111.311  0.00  0.00     0.068 A 
ATOM     20  C21  11 d         -14.816 205.610 112.258  0.00  0.00     0.037 A 
ATOM     21  C22  11 d         -14.433 205.520 113.605  0.00  0.00     0.018 A 
ATOM     22  O4   11 d         -13.578 205.530 116.400  0.00  0.00    -0.268 OA
ENDROOT
BRANCH  10  23
ATOM     23  N1   11 d         -16.893 204.379 124.135  0.00  0.00    -0.382 N 
BRANCH  23  24
ATOM     24  C9   11 d         -16.036 204.001 125.210  0.00  0.00     0.118 C 
ATOM     25  C10  11 d         -16.807 203.425 126.400  0.00  0.00     0.026 C 
ENDBRANCH  23  24
BRANCH  23  26
ATOM     26  C11  11 d         -18.274 204.645 124.345  0.00  0.00     0.118 C 
ATOM     27  C12  11 d         -18.584 206.141 124.355  0.00  0.00     0.026 C 
ENDBRANCH  23  26
ENDBRANCH  10  23
BRANCH  19  28
ATOM     28  O3   11 d         -14.313 206.214 109.940  0.00  0.00    -0.356 OA
ATOM     29  C20  11 d         -14.849 207.524 109.624  0.00  0.00     0.210 C 
ENDBRANCH  19  28
TORSDOF 4
ENDMDL
MODEL 8
REMARK VINA RESULT:      -7.8      8.457     11.659
REMARK  4 active torsions:
REMARK  status: ('A' for Active; 'I' for Inactive)
REMARK    1  A    between atoms: C8_10  and  N1_11 
REMARK    2  A    between atoms: N1_11  and  C9_12 
REMARK    3  A    between atoms: N1_11  and  C11_14 
REMARK    4  A    between atoms: C19_24  and  O3_25 
ROOT
ATOM      1  C1   11 d         -14.302 205.197 119.804  0.00  0.00     0.095 A 
ATOM      2  C2   11 d         -13.829 205.407 121.119  0.00  0.00     0.303 A 
ATOM      3  O1   11 d         -12.650 205.787 121.328  0.00  0.00    -0.259 OA
ATOM      4  O2   11 d         -14.633 205.227 122.154  0.00  0.00    -0.274 OA
ATOM      5  C3   11 d         -15.892 204.841 122.048  0.00  0.00     0.091 A 
ATOM      6  C4   11 d         -16.448 204.575 120.775  0.00  0.00    -0.001 A 
ATOM      7  C5   11 d         -15.633 204.760 119.646  0.00  0.00     0.036 A 
ATOM      8  C6   11 d         -17.787 204.152 120.671  0.00  0.00     0.016 A 
ATOM      9  C7   11 d         -18.570 204.020 121.829  0.00  0.00     0.030 A 
ATOM     10  C8   11 d         -18.027 204.315 123.093  0.00  0.00     0.032 A 
ATOM     11  C13  11 d         -16.683 204.713 123.198  0.00  0.00     0.067 A 
ATOM     12  C14  11 d         -13.461 205.454 118.609  0.00  0.00     0.209 A 
ATOM     13  N2   11 d         -12.159 205.808 118.615  0.00  0.00    -0.121 NA
ATOM     14  N3   11 d         -11.816 205.999 117.378  0.00  0.00    -0.121 NA
ATOM     15  C15  11 d         -12.914 205.760 116.631  0.00  0.00     0.203 A 
ATOM     16  C16  11 d         -13.004 205.912 115.161  0.00  0.00     0.019 A 
ATOM     17  C17  11 d         -11.902 206.392 114.420  0.00  0.00     0.018 A 
ATOM     18  C18  11 d         -12.005 206.574 113.032  0.00  0.00     0.037 A 
ATOM     19  C19  11 d         -13.214 206.305 112.372  0.00  0.00     0.068 A 
ATOM     20  C21  11 d         -14.297 205.779 113.094  0.00  0.00     0.037 A 
ATOM     21  C22  11 d         -14.200 205.598 114.482  0.00  0.00     0.018 A 
ATOM     22  O4   11 d         -13.925 205.414 117.386  0.00  0.00    -0.268 OA
ENDROOT
BRANCH  10  23
ATOM     23  N1   11 d         -18.801 204.227 124.239  0.00  0.00    -0.382 N 
BRANCH  23  24
ATOM     24  C9   11 d         -20.221 204.273 124.119  0.00  0.00     0.118 C 
ATOM     25  C10  11 d         -20.887 202.958 124.528  0.00  0.00     0.026 C 
ENDBRANCH  23  24
BRANCH  23  26
ATOM     26  C11  11 d         -18.166 204.123 125.508  0.00  0.00     0.118 C 
ATOM     27  C12  11 d         -18.595 205.232 126.466  0.00  0.00     0.026 C 
ENDBRANCH  23  26
ENDBRANCH  10  23
BRANCH  19  28
ATOM     28  O3   11 d         -13.295 206.435 110.960  0.00  0.00    -0.356 OA
ATOM     29  C20  11 d         -14.633 206.859 110.593  0.00  0.00     0.210 C 
ENDBRANCH  19  28
TORSDOF 4
ENDMDL
MODEL 9
REMARK VINA RESULT:      -7.4      3.280     10.564
REMARK  4 active torsions:
REMARK  status: ('A' for Active; 'I' for Inactive)
REMARK    1  A    between atoms: C8_10  and  N1_11 
REMARK    2  A    between atoms: N1_11  and  C9_12 
REMARK    3  A    between atoms: N1_11  and  C11_14 
REMARK    4  A    between atoms: C19_24  and  O3_25 
ROOT
ATOM      1  C1   11 d         -10.309 207.408 117.615  0.00  0.00     0.095 A 
ATOM      2  C2   11 d          -9.931 207.078 118.936  0.00  0.00     0.303 A 
ATOM      3  O1   11 d         -10.754 206.561 119.732  0.00  0.00    -0.259 OA
ATOM      4  O2   11 d          -8.693 207.290 119.349  0.00  0.00    -0.274 OA
ATOM      5  C3   11 d          -7.746 207.818 118.592  0.00  0.00     0.091 A 
ATOM      6  C4   11 d          -8.035 208.210 117.265  0.00  0.00    -0.001 A 
ATOM      7  C5   11 d          -9.336 207.996 116.780  0.00  0.00     0.036 A 
ATOM      8  C6   11 d          -7.024 208.782 116.469  0.00  0.00     0.016 A 
ATOM      9  C7   11 d          -5.729 208.939 116.989  0.00  0.00     0.030 A 
ATOM     10  C8   11 d          -5.434 208.520 118.300  0.00  0.00     0.032 A 
ATOM     11  C13  11 d          -6.450 207.972 119.102  0.00  0.00     0.067 A 
ATOM     12  C14  11 d         -11.664 207.123 117.084  0.00  0.00     0.209 A 
ATOM     13  N2   11 d         -12.705 206.628 117.785  0.00  0.00    -0.121 NA
ATOM     14  N3   11 d         -13.681 206.465 116.945  0.00  0.00    -0.121 NA
ATOM     15  C15  11 d         -13.223 206.862 115.740  0.00  0.00     0.203 A 
ATOM     16  C16  11 d         -13.981 206.798 114.468  0.00  0.00     0.019 A 
ATOM     17  C17  11 d         -15.277 206.240 114.433  0.00  0.00     0.018 A 
ATOM     18  C18  11 d         -15.975 206.143 113.219  0.00  0.00     0.037 A 
ATOM     19  C19  11 d         -15.379 206.577 112.024  0.00  0.00     0.068 A 
ATOM     20  C21  11 d         -14.112 207.181 112.061  0.00  0.00     0.037 A 
ATOM     21  C22  11 d         -13.410 207.277 113.271  0.00  0.00     0.018 A 
ATOM     22  O4   11 d         -11.986 207.277 115.824  0.00  0.00    -0.268 OA
ENDROOT
BRANCH  10  23
ATOM     23  N1   11 d          -4.151 208.633 118.811  0.00  0.00    -0.382 N 
BRANCH  23  24
ATOM     24  C9   11 d          -3.114 207.824 118.260  0.00  0.00     0.118 C 
ATOM     25  C10  11 d          -1.941 208.652 117.732  0.00  0.00     0.026 C 
ENDBRANCH  23  24
BRANCH  23  26
ATOM     26  C11  11 d          -3.901 209.527 119.889  0.00  0.00     0.118 C 
ATOM     27  C12  11 d          -4.274 210.968 119.548  0.00  0.00     0.026 C 
ENDBRANCH  23  26
ENDBRANCH  10  23
BRANCH  19  28
ATOM     28  O3   11 d         -16.112 206.531 110.809  0.00  0.00    -0.356 OA
ATOM     29  C20  11 d         -15.335 207.158 109.757  0.00  0.00     0.210 C 
ENDBRANCH  19  28
TORSDOF 4
ENDMDL
MODEL 10
REMARK VINA RESULT:      -7.3      7.264     10.202
REMARK  4 active torsions:
REMARK  status: ('A' for Active; 'I' for Inactive)
REMARK    1  A    between atoms: C8_10  and  N1_11 
REMARK    2  A    between atoms: N1_11  and  C9_12 
REMARK    3  A    between atoms: N1_11  and  C11_14 
REMARK    4  A    between atoms: C19_24  and  O3_25 
ROOT
ATOM      1  C1   11 d         -14.166 205.118 117.845  0.00  0.00     0.095 A 
ATOM      2  C2   11 d         -15.113 204.084 118.023  0.00  0.00     0.303 A 
ATOM      3  O1   11 d         -15.660 203.533 117.035  0.00  0.00    -0.259 OA
ATOM      4  O2   11 d         -15.423 203.665 119.238  0.00  0.00    -0.274 OA
ATOM      5  C3   11 d         -14.901 204.166 120.344  0.00  0.00     0.091 A 
ATOM      6  C4   11 d         -13.966 205.225 120.271  0.00  0.00    -0.001 A 
ATOM      7  C5   11 d         -13.601 205.698 119.000  0.00  0.00     0.036 A 
ATOM      8  C6   11 d         -13.423 205.761 121.454  0.00  0.00     0.016 A 
ATOM      9  C7   11 d         -13.793 205.226 122.699  0.00  0.00     0.030 A 
ATOM     10  C8   11 d         -14.699 204.151 122.770  0.00  0.00     0.032 A 
ATOM     11  C13  11 d         -15.260 203.633 121.590  0.00  0.00     0.067 A 
ATOM     12  C14  11 d         -13.733 205.573 116.502  0.00  0.00     0.209 A 
ATOM     13  N2   11 d         -14.234 205.155 115.321  0.00  0.00    -0.121 NA
ATOM     14  N3   11 d         -13.544 205.741 114.391  0.00  0.00    -0.121 NA
ATOM     15  C15  11 d         -12.628 206.510 115.016  0.00  0.00     0.203 A 
ATOM     16  C16  11 d         -11.583 207.318 114.346  0.00  0.00     0.019 A 
ATOM     17  C17  11 d         -11.444 207.290 112.941  0.00  0.00     0.018 A 
ATOM     18  C18  11 d         -10.425 208.024 112.314  0.00  0.00     0.037 A 
ATOM     19  C19  11 d          -9.520 208.774 113.081  0.00  0.00     0.068 A 
ATOM     20  C21  11 d          -9.685 208.848 114.473  0.00  0.00     0.037 A 
ATOM     21  C22  11 d         -10.699 208.113 115.105  0.00  0.00     0.018 A 
ATOM     22  O4   11 d         -12.749 206.416 116.315  0.00  0.00    -0.268 OA
ENDROOT
BRANCH  10  23
ATOM     23  N1   11 d         -15.041 203.589 123.989  0.00  0.00    -0.382 N 
BRANCH  23  24
ATOM     24  C9   11 d         -16.308 203.901 124.564  0.00  0.00     0.118 C 
ATOM     25  C10  11 d         -16.362 205.324 125.125  0.00  0.00     0.026 C 
ENDBRANCH  23  24
BRANCH  23  26
ATOM     26  C11  11 d         -14.114 202.739 124.654  0.00  0.00     0.118 C 
ATOM     27  C12  11 d         -14.674 202.172 125.957  0.00  0.00     0.026 C 
ENDBRANCH  23  26
ENDBRANCH  10  23
BRANCH  19  28
ATOM     28  O3   11 d          -8.529 209.562 112.439  0.00  0.00    -0.356 OA
ATOM     29  C20  11 d          -7.341 208.759 112.225  0.00  0.00     0.210 C 
ENDBRANCH  19  28
TORSDOF 4
ENDMDL
