MODEL 1
REMARK VINA RESULT:      -8.9      0.000      0.000
REMARK  7 active torsions:
REMARK  status: ('A' for Active; 'I' for Inactive)
REMARK    1  A    between atoms: C1_1  and  C2_2 
REMARK       I    between atoms: C1_1  and  N1_16 
REMARK    2  A    between atoms: C3_4  and  C6_7 
REMARK    3  A    between atoms: C6_7  and  S1_8 
REMARK    4  A    between atoms: S1_8  and  C7_9 
REMARK    5  A    between atoms: N1_16  and  C13_17 
REMARK    6  A    between atoms: C15_20  and  C16_22 
REMARK    7  A    between atoms: C16_22  and  C17_23 
ROOT
ATOM      1  C1   11 d         -14.410 206.224 119.277  0.00  0.00     0.281 C 
ATOM      2  O2   11 d         -13.997 207.378 119.654  0.00  0.00    -0.265 OA
ATOM      3  N1   11 d         -14.243 205.812 117.918  0.00  0.00    -0.300 N 
ATOM      4  H10  11 d         -14.588 204.849 117.600  0.00  0.00     0.171 HD
ENDROOT
BRANCH   1   5
ATOM      5  C2   11 d         -15.062 205.334 120.283  0.00  0.00     0.143 A 
ATOM      6  O1   11 d         -15.554 205.771 121.420  0.00  0.00    -0.309 OA
ATOM      7  C3   11 d         -16.071 204.749 122.056  0.00  0.00     0.063 A 
ATOM      8  C4   11 d         -15.885 203.579 121.341  0.00  0.00     0.036 A 
ATOM      9  C5   11 d         -15.246 203.960 120.179  0.00  0.00     0.045 A 
BRANCH   7  10
ATOM     10  C6   11 d         -16.667 204.847 123.424  0.00  0.00     0.144 C 
BRANCH  10  11
ATOM     11  S1   11 d         -18.000 206.111 123.422  0.00  0.00    -0.123 SA
BRANCH  11  12
ATOM     12  C7   11 d         -19.094 205.152 122.348  0.00  0.00     0.000 A 
ATOM     13  C8   11 d         -19.626 203.930 122.791  0.00  0.00     0.018 A 
ATOM     14  C9   11 d         -20.468 203.184 121.952  0.00  0.00     0.001 A 
ATOM     15  C10  11 d         -20.779 203.660 120.669  0.00  0.00     0.000 A 
ATOM     16  C11  11 d         -20.246 204.880 120.224  0.00  0.00     0.001 A 
ATOM     17  C12  11 d         -19.404 205.625 121.063  0.00  0.00     0.018 A 
ENDBRANCH  11  12
ENDBRANCH  10  11
ENDBRANCH   7  10
ENDBRANCH   1   5
BRANCH   3  18
ATOM     18  C13  11 d         -13.613 206.661 116.908  0.00  0.00     0.173 A 
ATOM     19  N2   11 d         -14.167 207.717 116.269  0.00  0.00    -0.235 NA
ATOM     20  C14  11 d         -13.281 208.259 115.390  0.00  0.00     0.134 A 
ATOM     21  C15  11 d         -12.075 207.564 115.405  0.00  0.00     0.008 A 
ATOM     22  S2   11 d         -12.211 206.468 116.414  0.00  0.00    -0.055 SA
BRANCH  21  23
ATOM     23  C16  11 d         -10.847 207.851 114.578  0.00  0.00     0.088 C 
BRANCH  23  24
ATOM     24  C17  11 d         -10.979 207.688 113.070  0.00  0.00    -0.032 A 
ATOM     25  C18  11 d         -10.120 208.436 112.225  0.00  0.00     0.040 A 
ATOM     26 Cl1   11 d          -8.891 209.562 112.870  0.00  0.00    -0.084 Cl
ATOM     27  C19  11 d         -10.210 208.314 110.828  0.00  0.00     0.024 A 
ATOM     28  C20  11 d         -11.149 207.449 110.253  0.00  0.00     0.002 A 
ATOM     29  C21  11 d         -12.000 206.699 111.072  0.00  0.00     0.001 A 
ATOM     30  C22  11 d         -11.915 206.811 112.467  0.00  0.00     0.009 A 
ENDBRANCH  23  24
ENDBRANCH  21  23
ENDBRANCH   3  18
TORSDOF 7
ENDMDL
MODEL 2
REMARK VINA RESULT:      -8.9      1.643      2.263
REMARK  7 active torsions:
REMARK  status: ('A' for Active; 'I' for Inactive)
REMARK    1  A    between atoms: C1_1  and  C2_2 
REMARK       I    between atoms: C1_1  and  N1_16 
REMARK    2  A    between atoms: C3_4  and  C6_7 
REMARK    3  A    between atoms: C6_7  and  S1_8 
REMARK    4  A    between atoms: S1_8  and  C7_9 
REMARK    5  A    between atoms: N1_16  and  C13_17 
REMARK    6  A    between atoms: C15_20  and  C16_22 
REMARK    7  A    between atoms: C16_22  and  C17_23 
ROOT
ATOM      1  C1   11 d         -14.561 206.239 119.776  0.00  0.00     0.281 C 
ATOM      2  O2   11 d         -14.349 207.481 120.014  0.00  0.00    -0.265 OA
ATOM      3  N1   11 d         -14.246 205.691 118.493  0.00  0.00    -0.300 N 
ATOM      4  H10  11 d         -14.423 204.655 118.291  0.00  0.00     0.171 HD
ENDROOT
BRANCH   1   5
ATOM      5  C2   11 d         -15.139 205.391 120.860  0.00  0.00     0.143 A 
ATOM      6  O1   11 d         -15.800 205.883 121.884  0.00  0.00    -0.309 OA
ATOM      7  C3   11 d         -16.190 204.880 122.632  0.00  0.00     0.063 A 
ATOM      8  C4   11 d         -15.741 203.677 122.116  0.00  0.00     0.036 A 
ATOM      9  C5   11 d         -15.074 204.005 120.954  0.00  0.00     0.045 A 
BRANCH   7  10
ATOM     10  C6   11 d         -16.915 205.054 123.928  0.00  0.00     0.144 C 
BRANCH  10  11
ATOM     11  S1   11 d         -18.288 206.253 123.706  0.00  0.00    -0.123 SA
BRANCH  11  12
ATOM     12  C7   11 d         -19.207 205.195 122.563  0.00  0.00     0.000 A 
ATOM     13  C8   11 d         -19.420 205.606 121.237  0.00  0.00     0.018 A 
ATOM     14  C9   11 d         -20.141 204.787 120.354  0.00  0.00     0.001 A 
ATOM     15  C10  11 d         -20.649 203.556 120.798  0.00  0.00     0.000 A 
ATOM     16  C11  11 d         -20.438 203.145 122.123  0.00  0.00     0.001 A 
ATOM     17  C12  11 d         -19.718 203.965 123.005  0.00  0.00     0.018 A 
ENDBRANCH  11  12
ENDBRANCH  10  11
ENDBRANCH   7  10
ENDBRANCH   1   5
BRANCH   3  18
ATOM     18  C13  11 d         -13.684 206.494 117.408  0.00  0.00     0.173 A 
ATOM     19  N2   11 d         -12.440 207.023 117.345  0.00  0.00    -0.235 NA
ATOM     20  C14  11 d         -12.276 207.715 116.185  0.00  0.00     0.134 A 
ATOM     21  C15  11 d         -13.435 207.679 115.415  0.00  0.00     0.008 A 
ATOM     22  S2   11 d         -14.438 206.863 116.167  0.00  0.00    -0.055 SA
BRANCH  21  23
ATOM     23  C16  11 d         -13.655 208.321 114.068  0.00  0.00     0.088 C 
BRANCH  23  24
ATOM     24  C17  11 d         -14.111 207.410 112.937  0.00  0.00    -0.032 A 
ATOM     25  C18  11 d         -13.136 206.668 112.223  0.00  0.00     0.040 A 
ATOM     26 Cl1   11 d         -11.393 206.768 112.606  0.00  0.00    -0.084 Cl
ATOM     27  C19  11 d         -13.516 205.816 111.172  0.00  0.00     0.024 A 
ATOM     28  C20  11 d         -14.865 205.688 110.818  0.00  0.00     0.002 A 
ATOM     29  C21  11 d         -15.840 206.407 111.517  0.00  0.00     0.001 A 
ATOM     30  C22  11 d         -15.471 207.257 112.569  0.00  0.00     0.009 A 
ENDBRANCH  23  24
ENDBRANCH  21  23
ENDBRANCH   3  18
TORSDOF 7
ENDMDL
MODEL 3
REMARK VINA RESULT:      -8.8      1.916      2.316
REMARK  7 active torsions:
REMARK  status: ('A' for Active; 'I' for Inactive)
REMARK    1  A    between atoms: C1_1  and  C2_2 
REMARK       I    between atoms: C1_1  and  N1_16 
REMARK    2  A    between atoms: C3_4  and  C6_7 
REMARK    3  A    between atoms: C6_7  and  S1_8 
REMARK    4  A    between atoms: S1_8  and  C7_9 
REMARK    5  A    between atoms: N1_16  and  C13_17 
REMARK    6  A    between atoms: C15_20  and  C16_22 
REMARK    7  A    between atoms: C16_22  and  C17_23 
ROOT
ATOM      1  C1   11 d         -13.496 205.899 119.645  0.00  0.00     0.281 C 
ATOM      2  O2   11 d         -12.254 206.174 119.480  0.00  0.00    -0.265 OA
ATOM      3  N1   11 d         -14.411 206.039 118.555  0.00  0.00    -0.300 N 
ATOM      4  H10  11 d         -15.449 205.812 118.690  0.00  0.00     0.171 HD
ENDROOT
BRANCH   1   5
ATOM      5  C2   11 d         -13.955 205.436 120.988  0.00  0.00     0.143 A 
ATOM      6  O1   11 d         -15.222 205.333 121.320  0.00  0.00    -0.309 OA
ATOM      7  C3   11 d         -15.283 204.881 122.548  0.00  0.00     0.063 A 
ATOM      8  C4   11 d         -14.014 204.714 123.074  0.00  0.00     0.036 A 
ATOM      9  C5   11 d         -13.149 205.056 122.055  0.00  0.00     0.045 A 
BRANCH   7  10
ATOM     10  C6   11 d         -16.565 204.698 123.295  0.00  0.00     0.144 C 
BRANCH  10  11
ATOM     11  S1   11 d         -17.672 206.128 122.972  0.00  0.00    -0.123 SA
BRANCH  11  12
ATOM     12  C7   11 d         -18.893 205.150 122.064  0.00  0.00     0.000 A 
ATOM     13  C8   11 d         -19.254 203.872 122.520  0.00  0.00     0.018 A 
ATOM     14  C9   11 d         -20.196 203.113 121.809  0.00  0.00     0.001 A 
ATOM     15  C10  11 d         -20.778 203.632 120.642  0.00  0.00     0.000 A 
ATOM     16  C11  11 d         -20.417 204.908 120.186  0.00  0.00     0.001 A 
ATOM     17  C12  11 d         -19.475 205.667 120.896  0.00  0.00     0.018 A 
ENDBRANCH  11  12
ENDBRANCH  10  11
ENDBRANCH   7  10
ENDBRANCH   1   5
BRANCH   3  18
ATOM     18  C13  11 d         -13.997 206.494 117.229  0.00  0.00     0.173 A 
ATOM     19  N2   11 d         -13.865 207.774 116.810  0.00  0.00    -0.235 NA
ATOM     20  C14  11 d         -13.466 207.808 115.510  0.00  0.00     0.134 A 
ATOM     21  C15  11 d         -13.318 206.522 114.998  0.00  0.00     0.008 A 
ATOM     22  S2   11 d         -13.650 205.569 116.102  0.00  0.00    -0.055 SA
BRANCH  21  23
ATOM     23  C16  11 d         -12.892 206.139 113.603  0.00  0.00     0.088 C 
BRANCH  23  24
ATOM     24  C17  11 d         -13.903 206.370 112.487  0.00  0.00    -0.032 A 
ATOM     25  C18  11 d         -13.431 206.762 111.209  0.00  0.00     0.040 A 
ATOM     26 Cl1   11 d         -11.692 206.995 110.864  0.00  0.00    -0.084 Cl
ATOM     27  C19  11 d         -14.331 206.985 110.153  0.00  0.00     0.024 A 
ATOM     28  C20  11 d         -15.708 206.819 110.351  0.00  0.00     0.002 A 
ATOM     29  C21  11 d         -16.190 206.426 111.604  0.00  0.00     0.001 A 
ATOM     30  C22  11 d         -15.299 206.199 112.662  0.00  0.00     0.009 A 
ENDBRANCH  23  24
ENDBRANCH  21  23
ENDBRANCH   3  18
TORSDOF 7
ENDMDL
MODEL 4
REMARK VINA RESULT:      -8.7      3.659      9.889
REMARK  7 active torsions:
REMARK  status: ('A' for Active; 'I' for Inactive)
REMARK    1  A    between atoms: C1_1  and  C2_2 
REMARK       I    between atoms: C1_1  and  N1_16 
REMARK    2  A    between atoms: C3_4  and  C6_7 
REMARK    3  A    between atoms: C6_7  and  S1_8 
REMARK    4  A    between atoms: S1_8  and  C7_9 
REMARK    5  A    between atoms: N1_16  and  C13_17 
REMARK    6  A    between atoms: C15_20  and  C16_22 
REMARK    7  A    between atoms: C16_22  and  C17_23 
ROOT
ATOM      1  C1   11 d         -13.364 207.280 116.460  0.00  0.00     0.281 C 
ATOM      2  O2   11 d         -14.492 207.891 116.472  0.00  0.00    -0.265 OA
ATOM      3  N1   11 d         -12.972 206.480 117.579  0.00  0.00    -0.300 N 
ATOM      4  H10  11 d         -12.030 205.970 117.573  0.00  0.00     0.171 HD
ENDROOT
BRANCH   1   5
ATOM      5  C2   11 d         -12.483 207.425 115.264  0.00  0.00     0.143 A 
ATOM      6  O1   11 d         -12.561 206.640 114.213  0.00  0.00    -0.309 OA
ATOM      7  C3   11 d         -11.673 207.046 113.339  0.00  0.00     0.063 A 
ATOM      8  C4   11 d         -10.946 208.113 113.835  0.00  0.00     0.036 A 
ATOM      9  C5   11 d         -11.484 208.374 115.079  0.00  0.00     0.045 A 
BRANCH   7  10
ATOM     10  C6   11 d         -11.420 206.351 112.039  0.00  0.00     0.144 C 
BRANCH  10  11
ATOM     11  S1   11 d         -12.238 207.277 110.680  0.00  0.00    -0.123 SA
BRANCH  11  12
ATOM     12  C7   11 d         -13.887 206.634 111.051  0.00  0.00     0.000 A 
ATOM     13  C8   11 d         -14.061 205.276 111.364  0.00  0.00     0.018 A 
ATOM     14  C9   11 d         -15.343 204.778 111.644  0.00  0.00     0.001 A 
ATOM     15  C10  11 d         -16.452 205.638 111.611  0.00  0.00     0.000 A 
ATOM     16  C11  11 d         -16.279 206.995 111.298  0.00  0.00     0.001 A 
ATOM     17  C12  11 d         -14.997 207.492 111.018  0.00  0.00     0.018 A 
ENDBRANCH  11  12
ENDBRANCH  10  11
ENDBRANCH   7  10
ENDBRANCH   1   5
BRANCH   3  18
ATOM     18  C13  11 d         -13.808 206.320 118.767  0.00  0.00     0.173 A 
ATOM     19  N2   11 d         -14.114 207.268 119.683  0.00  0.00    -0.235 NA
ATOM     20  C14  11 d         -14.912 206.750 120.655  0.00  0.00     0.134 A 
ATOM     21  C15  11 d         -15.170 205.401 120.423  0.00  0.00     0.008 A 
ATOM     22  S2   11 d         -14.466 205.031 119.156  0.00  0.00    -0.055 SA
BRANCH  21  23
ATOM     23  C16  11 d         -16.008 204.475 121.267  0.00  0.00     0.088 C 
BRANCH  23  24
ATOM     24  C17  11 d         -17.495 204.404 120.942  0.00  0.00    -0.032 A 
ATOM     25  C18  11 d         -18.395 205.204 121.690  0.00  0.00     0.040 A 
ATOM     26 Cl1   11 d         -17.845 206.291 122.998  0.00  0.00    -0.084 Cl
ATOM     27  C19  11 d         -19.774 205.167 121.422  0.00  0.00     0.024 A 
ATOM     28  C20  11 d         -20.275 204.339 120.410  0.00  0.00     0.002 A 
ATOM     29  C21  11 d         -19.400 203.548 119.658  0.00  0.00     0.001 A 
ATOM     30  C22  11 d         -18.023 203.581 119.917  0.00  0.00     0.009 A 
ENDBRANCH  23  24
ENDBRANCH  21  23
ENDBRANCH   3  18
TORSDOF 7
ENDMDL
MODEL 5
REMARK VINA RESULT:      -8.5      3.922     10.198
REMARK  7 active torsions:
REMARK  status: ('A' for Active; 'I' for Inactive)
REMARK    1  A    between atoms: C1_1  and  C2_2 
REMARK       I    between atoms: C1_1  and  N1_16 
REMARK    2  A    between atoms: C3_4  and  C6_7 
REMARK    3  A    between atoms: C6_7  and  S1_8 
REMARK    4  A    between atoms: S1_8  and  C7_9 
REMARK    5  A    between atoms: N1_16  and  C13_17 
REMARK    6  A    between atoms: C15_20  and  C16_22 
REMARK    7  A    between atoms: C16_22  and  C17_23 
ROOT
ATOM      1  C1   11 d         -13.976 206.584 118.702  0.00  0.00     0.281 C 
ATOM      2  O2   11 d         -14.097 205.311 118.810  0.00  0.00    -0.265 OA
ATOM      3  N1   11 d         -14.560 207.444 119.683  0.00  0.00    -0.300 N 
ATOM      4  H10  11 d         -14.462 208.507 119.595  0.00  0.00     0.171 HD
ENDROOT
BRANCH   1   5
ATOM      5  C2   11 d         -13.219 207.135 117.540  0.00  0.00     0.143 A 
ATOM      6  O1   11 d         -13.778 207.415 116.384  0.00  0.00    -0.309 OA
ATOM      7  C3   11 d         -12.851 207.899 115.594  0.00  0.00     0.063 A 
ATOM      8  C4   11 d         -11.620 207.906 116.226  0.00  0.00     0.036 A 
ATOM      9  C5   11 d         -11.861 207.428 117.497  0.00  0.00     0.045 A 
BRANCH   7  10
ATOM     10  C6   11 d         -13.099 208.271 114.167  0.00  0.00     0.144 C 
BRANCH  10  11
ATOM     11  S1   11 d         -12.608 206.876 113.077  0.00  0.00    -0.123 SA
BRANCH  11  12
ATOM     12  C7   11 d         -14.263 206.658 112.382  0.00  0.00     0.000 A 
ATOM     13  C8   11 d         -14.520 207.012 111.048  0.00  0.00     0.018 A 
ATOM     14  C9   11 d         -15.808 206.849 110.513  0.00  0.00     0.001 A 
ATOM     15  C10  11 d         -16.838 206.332 111.313  0.00  0.00     0.000 A 
ATOM     16  C11  11 d         -16.583 205.980 112.647  0.00  0.00     0.001 A 
ATOM     17  C12  11 d         -15.296 206.143 113.181  0.00  0.00     0.018 A 
ENDBRANCH  11  12
ENDBRANCH  10  11
ENDBRANCH   7  10
ENDBRANCH   1   5
BRANCH   3  18
ATOM     18  C13  11 d         -15.311 206.939 120.831  0.00  0.00     0.173 A 
ATOM     19  N2   11 d         -14.805 206.404 121.966  0.00  0.00    -0.235 NA
ATOM     20  C14  11 d         -15.809 206.038 122.808  0.00  0.00     0.134 A 
ATOM     21  C15  11 d         -17.054 206.315 122.251  0.00  0.00     0.008 A 
ATOM     22  S2   11 d         -16.808 206.937 120.912  0.00  0.00    -0.055 SA
BRANCH  21  23
ATOM     23  C16  11 d         -18.406 206.059 122.867  0.00  0.00     0.088 C 
BRANCH  23  24
ATOM     24  C17  11 d         -19.276 205.001 122.202  0.00  0.00    -0.032 A 
ATOM     25  C18  11 d         -19.708 203.890 122.971  0.00  0.00     0.040 A 
ATOM     26 Cl1   11 d         -19.266 203.692 124.692  0.00  0.00    -0.084 Cl
ATOM     27  C19  11 d         -20.511 202.892 122.394  0.00  0.00     0.024 A 
ATOM     28  C20  11 d         -20.897 202.983 121.051  0.00  0.00     0.002 A 
ATOM     29  C21  11 d         -20.486 204.075 120.280  0.00  0.00     0.001 A 
ATOM     30  C22  11 d         -19.687 205.077 120.847  0.00  0.00     0.009 A 
ENDBRANCH  23  24
ENDBRANCH  21  23
ENDBRANCH   3  18
TORSDOF 7
ENDMDL
MODEL 6
REMARK VINA RESULT:      -8.5      6.336      9.543
REMARK  7 active torsions:
REMARK  status: ('A' for Active; 'I' for Inactive)
REMARK    1  A    between atoms: C1_1  and  C2_2 
REMARK       I    between atoms: C1_1  and  N1_16 
REMARK    2  A    between atoms: C3_4  and  C6_7 
REMARK    3  A    between atoms: C6_7  and  S1_8 
REMARK    4  A    between atoms: S1_8  and  C7_9 
REMARK    5  A    between atoms: N1_16  and  C13_17 
REMARK    6  A    between atoms: C15_20  and  C16_22 
REMARK    7  A    between atoms: C16_22  and  C17_23 
ROOT
ATOM      1  C1   11 d         -10.207 208.098 117.964  0.00  0.00     0.281 C 
ATOM      2  O2   11 d         -11.254 207.766 118.626  0.00  0.00    -0.265 OA
ATOM      3  N1   11 d         -10.250 208.151 116.536  0.00  0.00    -0.300 N 
ATOM      4  H10  11 d          -9.377 208.427 115.980  0.00  0.00     0.171 HD
ENDROOT
BRANCH   1   5
ATOM      5  C2   11 d          -8.958 208.423 118.714  0.00  0.00     0.143 A 
ATOM      6  O1   11 d          -7.756 208.322 118.191  0.00  0.00    -0.309 OA
ATOM      7  C3   11 d          -6.888 208.700 119.097  0.00  0.00     0.063 A 
ATOM      8  C4   11 d          -7.524 209.027 120.282  0.00  0.00     0.036 A 
ATOM      9  C5   11 d          -8.871 208.866 120.029  0.00  0.00     0.045 A 
BRANCH   7  10
ATOM     10  C6   11 d          -5.408 208.656 118.887  0.00  0.00     0.144 C 
BRANCH  10  11
ATOM     11  S1   11 d          -4.865 210.189 118.032  0.00  0.00    -0.123 SA
BRANCH  11  12
ATOM     12  C7   11 d          -5.242 209.562 116.378  0.00  0.00     0.000 A 
ATOM     13  C8   11 d          -5.891 210.384 115.443  0.00  0.00     0.018 A 
ATOM     14  C9   11 d          -6.189 209.892 114.163  0.00  0.00     0.001 A 
ATOM     15  C10  11 d          -5.838 208.578 113.818  0.00  0.00     0.000 A 
ATOM     16  C11  11 d          -5.191 207.755 114.752  0.00  0.00     0.001 A 
ATOM     17  C12  11 d          -4.893 208.247 116.032  0.00  0.00     0.018 A 
ENDBRANCH  11  12
ENDBRANCH  10  11
ENDBRANCH   7  10
ENDBRANCH   1   5
BRANCH   3  18
ATOM     18  C13  11 d         -11.454 207.836 115.769  0.00  0.00     0.173 A 
ATOM     19  N2   11 d         -12.482 208.669 115.487  0.00  0.00    -0.235 NA
ATOM     20  C14  11 d         -13.431 208.021 114.757  0.00  0.00     0.134 A 
ATOM     21  C15  11 d         -13.066 206.698 114.525  0.00  0.00     0.008 A 
ATOM     22  S2   11 d         -11.732 206.491 115.170  0.00  0.00    -0.055 SA
BRANCH  21  23
ATOM     23  C16  11 d         -13.844 205.658 113.759  0.00  0.00     0.088 C 
BRANCH  23  24
ATOM     24  C17  11 d         -14.515 206.112 112.469  0.00  0.00    -0.032 A 
ATOM     25  C18  11 d         -13.700 206.437 111.355  0.00  0.00     0.040 A 
ATOM     26 Cl1   11 d         -11.917 206.334 111.414  0.00  0.00    -0.084 Cl
ATOM     27  C19  11 d         -14.280 206.860 110.147  0.00  0.00     0.024 A 
ATOM     28  C20  11 d         -15.672 206.963 110.028  0.00  0.00     0.002 A 
ATOM     29  C21  11 d         -16.490 206.639 111.116  0.00  0.00     0.001 A 
ATOM     30  C22  11 d         -15.921 206.213 112.324  0.00  0.00     0.009 A 
ENDBRANCH  23  24
ENDBRANCH  21  23
ENDBRANCH   3  18
TORSDOF 7
ENDMDL
MODEL 7
REMARK VINA RESULT:      -8.4      3.499     10.214
REMARK  7 active torsions:
REMARK  status: ('A' for Active; 'I' for Inactive)
REMARK    1  A    between atoms: C1_1  and  C2_2 
REMARK       I    between atoms: C1_1  and  N1_16 
REMARK    2  A    between atoms: C3_4  and  C6_7 
REMARK    3  A    between atoms: C6_7  and  S1_8 
REMARK    4  A    between atoms: S1_8  and  C7_9 
REMARK    5  A    between atoms: N1_16  and  C13_17 
REMARK    6  A    between atoms: C15_20  and  C16_22 
REMARK    7  A    between atoms: C16_22  and  C17_23 
ROOT
ATOM      1  C1   11 d         -12.509 207.172 118.131  0.00  0.00     0.281 C 
ATOM      2  O2   11 d         -11.685 206.825 119.051  0.00  0.00    -0.265 OA
ATOM      3  N1   11 d         -13.917 207.089 118.364  0.00  0.00    -0.300 N 
ATOM      4  H10  11 d         -14.608 207.377 117.597  0.00  0.00     0.171 HD
ENDROOT
BRANCH   1   5
ATOM      5  C2   11 d         -11.965 207.657 116.828  0.00  0.00     0.143 A 
ATOM      6  O1   11 d         -12.567 207.456 115.678  0.00  0.00    -0.309 OA
ATOM      7  C3   11 d         -11.848 208.024 114.741  0.00  0.00     0.063 A 
ATOM      8  C4   11 d         -10.704 208.591 115.275  0.00  0.00     0.036 A 
ATOM      9  C5   11 d         -10.788 208.370 116.634  0.00  0.00     0.045 A 
BRANCH   7  10
ATOM     10  C6   11 d         -12.183 207.946 113.286  0.00  0.00     0.144 C 
BRANCH  10  11
ATOM     11  S1   11 d         -12.254 206.185 112.767  0.00  0.00    -0.123 SA
BRANCH  11  12
ATOM     12  C7   11 d         -13.950 206.294 112.151  0.00  0.00     0.000 A 
ATOM     13  C8   11 d         -14.208 206.856 110.890  0.00  0.00     0.018 A 
ATOM     14  C9   11 d         -15.527 206.947 110.417  0.00  0.00     0.001 A 
ATOM     15  C10  11 d         -16.588 206.475 111.206  0.00  0.00     0.000 A 
ATOM     16  C11  11 d         -16.331 205.916 112.466  0.00  0.00     0.001 A 
ATOM     17  C12  11 d         -15.013 205.826 112.938  0.00  0.00     0.018 A 
ENDBRANCH  11  12
ENDBRANCH  10  11
ENDBRANCH   7  10
ENDBRANCH   1   5
BRANCH   3  18
ATOM     18  C13  11 d         -14.483 206.615 119.626  0.00  0.00     0.173 A 
ATOM     19  N2   11 d         -14.743 207.351 120.731  0.00  0.00    -0.235 NA
ATOM     20  C14  11 d         -15.261 206.565 121.713  0.00  0.00     0.134 A 
ATOM     21  C15  11 d         -15.363 205.242 121.293  0.00  0.00     0.008 A 
ATOM     22  S2   11 d         -14.865 205.188 119.884  0.00  0.00    -0.055 SA
BRANCH  21  23
ATOM     23  C16  11 d         -15.887 204.071 122.087  0.00  0.00     0.088 C 
BRANCH  23  24
ATOM     24  C17  11 d         -17.219 204.263 122.799  0.00  0.00    -0.032 A 
ATOM     25  C18  11 d         -18.418 204.095 122.061  0.00  0.00     0.040 A 
ATOM     26 Cl1   11 d         -18.418 203.668 120.325  0.00  0.00    -0.084 Cl
ATOM     27  C19  11 d         -19.668 204.264 122.681  0.00  0.00     0.024 A 
ATOM     28  C20  11 d         -19.743 204.598 124.039  0.00  0.00     0.002 A 
ATOM     29  C21  11 d         -18.570 204.760 124.784  0.00  0.00     0.001 A 
ATOM     30  C22  11 d         -17.319 204.591 124.174  0.00  0.00     0.009 A 
ENDBRANCH  23  24
ENDBRANCH  21  23
ENDBRANCH   3  18
TORSDOF 7
ENDMDL
MODEL 8
REMARK VINA RESULT:      -8.4      5.871      9.845
REMARK  7 active torsions:
REMARK  status: ('A' for Active; 'I' for Inactive)
REMARK    1  A    between atoms: C1_1  and  C2_2 
REMARK       I    between atoms: C1_1  and  N1_16 
REMARK    2  A    between atoms: C3_4  and  C6_7 
REMARK    3  A    between atoms: C6_7  and  S1_8 
REMARK    4  A    between atoms: S1_8  and  C7_9 
REMARK    5  A    between atoms: N1_16  and  C13_17 
REMARK    6  A    between atoms: C15_20  and  C16_22 
REMARK    7  A    between atoms: C16_22  and  C17_23 
ROOT
ATOM      1  C1   11 d         -10.313 208.024 117.020  0.00  0.00     0.281 C 
ATOM      2  O2   11 d         -10.458 208.833 116.036  0.00  0.00    -0.265 OA
ATOM      3  N1   11 d         -11.303 207.024 117.276  0.00  0.00    -0.300 N 
ATOM      4  H10  11 d         -11.185 206.347 118.098  0.00  0.00     0.171 HD
ENDROOT
BRANCH   1   5
ATOM      5  C2   11 d          -9.100 208.152 117.881  0.00  0.00     0.143 A 
ATOM      6  O1   11 d          -7.880 208.231 117.398  0.00  0.00    -0.309 OA
ATOM      7  C3   11 d          -7.054 208.358 118.408  0.00  0.00     0.063 A 
ATOM      8  C4   11 d          -7.737 208.323 119.610  0.00  0.00     0.036 A 
ATOM      9  C5   11 d          -9.069 208.208 119.269  0.00  0.00     0.045 A 
BRANCH   7  10
ATOM     10  C6   11 d          -5.567 208.409 118.253  0.00  0.00     0.144 C 
BRANCH  10  11
ATOM     11  S1   11 d          -5.093 209.967 117.404  0.00  0.00    -0.123 SA
BRANCH  11  12
ATOM     12  C7   11 d          -4.840 210.886 118.941  0.00  0.00     0.000 A 
ATOM     13  C8   11 d          -5.860 211.708 119.447  0.00  0.00     0.018 A 
ATOM     14  C9   11 d          -5.658 212.427 120.636  0.00  0.00     0.001 A 
ATOM     15  C10  11 d          -4.436 212.323 121.318  0.00  0.00     0.000 A 
ATOM     16  C11  11 d          -3.416 211.504 120.812  0.00  0.00     0.001 A 
ATOM     17  C12  11 d          -3.618 210.786 119.624  0.00  0.00     0.018 A 
ENDBRANCH  11  12
ENDBRANCH  10  11
ENDBRANCH   7  10
ENDBRANCH   1   5
BRANCH   3  18
ATOM     18  C13  11 d         -12.504 206.873 116.457  0.00  0.00     0.173 A 
ATOM     19  N2   11 d         -13.670 207.548 116.586  0.00  0.00    -0.235 NA
ATOM     20  C14  11 d         -14.564 207.135 115.648  0.00  0.00     0.134 A 
ATOM     21  C15  11 d         -14.018 206.141 114.841  0.00  0.00     0.008 A 
ATOM     22  S2   11 d         -12.618 205.908 115.315  0.00  0.00    -0.055 SA
BRANCH  21  23
ATOM     23  C16  11 d         -14.687 205.429 113.692  0.00  0.00     0.088 C 
BRANCH  23  24
ATOM     24  C17  11 d         -14.523 206.047 112.310  0.00  0.00    -0.032 A 
ATOM     25  C18  11 d         -15.683 206.302 111.534  0.00  0.00     0.040 A 
ATOM     26 Cl1   11 d         -17.327 205.920 112.124  0.00  0.00    -0.084 Cl
ATOM     27  C19  11 d         -15.575 206.871 110.254  0.00  0.00     0.024 A 
ATOM     28  C20  11 d         -14.318 207.197 109.729  0.00  0.00     0.002 A 
ATOM     29  C21  11 d         -13.164 206.959 110.484  0.00  0.00     0.001 A 
ATOM     30  C22  11 d         -13.263 206.394 111.763  0.00  0.00     0.009 A 
ENDBRANCH  23  24
ENDBRANCH  21  23
ENDBRANCH   3  18
TORSDOF 7
ENDMDL
MODEL 9
REMARK VINA RESULT:      -8.2      3.854     10.883
REMARK  7 active torsions:
REMARK  status: ('A' for Active; 'I' for Inactive)
REMARK    1  A    between atoms: C1_1  and  C2_2 
REMARK       I    between atoms: C1_1  and  N1_16 
REMARK    2  A    between atoms: C3_4  and  C6_7 
REMARK    3  A    between atoms: C6_7  and  S1_8 
REMARK    4  A    between atoms: S1_8  and  C7_9 
REMARK    5  A    between atoms: N1_16  and  C13_17 
REMARK    6  A    between atoms: C15_20  and  C16_22 
REMARK    7  A    between atoms: C16_22  and  C17_23 
ROOT
ATOM      1  C1   11 d         -14.487 206.523 119.452  0.00  0.00     0.281 C 
ATOM      2  O2   11 d         -14.425 207.553 120.215  0.00  0.00    -0.265 OA
ATOM      3  N1   11 d         -15.275 205.394 119.837  0.00  0.00    -0.300 N 
ATOM      4  H10  11 d         -15.328 204.532 119.204  0.00  0.00     0.171 HD
ENDROOT
BRANCH   1   5
ATOM      5  C2   11 d         -13.723 206.535 118.170  0.00  0.00     0.143 A 
ATOM      6  O1   11 d         -14.089 207.236 117.120  0.00  0.00    -0.309 OA
ATOM      7  C3   11 d         -13.199 207.045 116.177  0.00  0.00     0.063 A 
ATOM      8  C4   11 d         -12.225 206.155 116.593  0.00  0.00     0.036 A 
ATOM      9  C5   11 d         -12.553 205.837 117.894  0.00  0.00     0.045 A 
BRANCH   7  10
ATOM     10  C6   11 d         -13.316 207.630 114.806  0.00  0.00     0.144 C 
BRANCH  10  11
ATOM     11  S1   11 d         -12.726 206.409 113.567  0.00  0.00    -0.123 SA
BRANCH  11  12
ATOM     12  C7   11 d         -14.271 206.412 112.628  0.00  0.00     0.000 A 
ATOM     13  C8   11 d         -15.477 206.052 113.252  0.00  0.00     0.018 A 
ATOM     14  C9   11 d         -16.674 206.048 112.518  0.00  0.00     0.001 A 
ATOM     15  C10  11 d         -16.664 206.404 111.161  0.00  0.00     0.000 A 
ATOM     16  C11  11 d         -15.460 206.762 110.536  0.00  0.00     0.001 A 
ATOM     17  C12  11 d         -14.264 206.766 111.269  0.00  0.00     0.018 A 
ENDBRANCH  11  12
ENDBRANCH  10  11
ENDBRANCH   7  10
ENDBRANCH   1   5
BRANCH   3  18
ATOM     18  C13  11 d         -16.031 205.348 121.088  0.00  0.00     0.173 A 
ATOM     19  N2   11 d         -15.601 204.886 122.285  0.00  0.00    -0.235 NA
ATOM     20  C14  11 d         -16.585 204.997 123.218  0.00  0.00     0.134 A 
ATOM     21  C15  11 d         -17.739 205.544 122.664  0.00  0.00     0.008 A 
ATOM     22  S2   11 d         -17.447 205.821 121.223  0.00  0.00    -0.055 SA
BRANCH  21  23
ATOM     23  C16  11 d         -19.043 205.825 123.367  0.00  0.00     0.088 C 
BRANCH  23  24
ATOM     24  C17  11 d         -19.657 204.680 124.162  0.00  0.00    -0.032 A 
ATOM     25  C18  11 d         -20.339 203.653 123.462  0.00  0.00     0.040 A 
ATOM     26 Cl1   11 d         -20.502 203.656 121.682  0.00  0.00    -0.084 Cl
ATOM     27  C19  11 d         -20.920 202.579 124.159  0.00  0.00     0.024 A 
ATOM     28  C20  11 d         -20.830 202.511 125.554  0.00  0.00     0.002 A 
ATOM     29  C21  11 d         -20.156 203.513 126.260  0.00  0.00     0.001 A 
ATOM     30  C22  11 d         -19.570 204.586 125.573  0.00  0.00     0.009 A 
ENDBRANCH  23  24
ENDBRANCH  21  23
ENDBRANCH   3  18
TORSDOF 7
ENDMDL
MODEL 10
REMARK VINA RESULT:      -8.2      3.746     11.286
REMARK  7 active torsions:
REMARK  status: ('A' for Active; 'I' for Inactive)
REMARK    1  A    between atoms: C1_1  and  C2_2 
REMARK       I    between atoms: C1_1  and  N1_16 
REMARK    2  A    between atoms: C3_4  and  C6_7 
REMARK    3  A    between atoms: C6_7  and  S1_8 
REMARK    4  A    between atoms: S1_8  and  C7_9 
REMARK    5  A    between atoms: N1_16  and  C13_17 
REMARK    6  A    between atoms: C15_20  and  C16_22 
REMARK    7  A    between atoms: C16_22  and  C17_23 
ROOT
ATOM      1  C1   11 d         -13.239 206.936 115.917  0.00  0.00     0.281 C 
ATOM      2  O2   11 d         -14.488 207.189 115.773  0.00  0.00    -0.265 OA
ATOM      3  N1   11 d         -12.718 206.613 117.209  0.00  0.00    -0.300 N 
ATOM      4  H10  11 d         -11.675 206.402 117.332  0.00  0.00     0.171 HD
ENDROOT
BRANCH   1   5
ATOM      5  C2   11 d         -12.355 206.988 114.715  0.00  0.00     0.143 A 
ATOM      6  O1   11 d         -11.246 207.693 114.668  0.00  0.00    -0.309 OA
ATOM      7  C3   11 d         -10.699 207.505 113.492  0.00  0.00     0.063 A 
ATOM      8  C4   11 d         -11.486 206.680 112.708  0.00  0.00     0.036 A 
ATOM      9  C5   11 d         -12.553 206.327 113.509  0.00  0.00     0.045 A 
BRANCH   7  10
ATOM     10  C6   11 d          -9.454 208.201 113.043  0.00  0.00     0.144 C 
BRANCH  10  11
ATOM     11  S1   11 d          -9.010 209.505 114.258  0.00  0.00    -0.123 SA
BRANCH  11  12
ATOM     12  C7   11 d          -7.233 209.387 113.940  0.00  0.00     0.000 A 
ATOM     13  C8   11 d          -6.749 208.506 112.960  0.00  0.00     0.018 A 
ATOM     14  C9   11 d          -5.369 208.410 112.721  0.00  0.00     0.001 A 
ATOM     15  C10  11 d          -4.474 209.196 113.463  0.00  0.00     0.000 A 
ATOM     16  C11  11 d          -4.957 210.075 114.444  0.00  0.00     0.001 A 
ATOM     17  C12  11 d          -6.336 210.170 114.683  0.00  0.00     0.018 A 
ENDBRANCH  11  12
ENDBRANCH  10  11
ENDBRANCH   7  10
ENDBRANCH   1   5
BRANCH   3  18
ATOM     18  C13  11 d         -13.555 206.557 118.406  0.00  0.00     0.173 A 
ATOM     19  N2   11 d         -13.936 207.596 119.184  0.00  0.00    -0.235 NA
ATOM     20  C14  11 d         -14.708 207.159 120.216  0.00  0.00     0.134 A 
ATOM     21  C15  11 d         -14.870 205.778 120.168  0.00  0.00     0.008 A 
ATOM     22  S2   11 d         -14.127 205.289 118.965  0.00  0.00    -0.055 SA
BRANCH  21  23
ATOM     23  C16  11 d         -15.652 204.917 121.128  0.00  0.00     0.088 C 
BRANCH  23  24
ATOM     24  C17  11 d         -17.150 204.800 120.883  0.00  0.00    -0.032 A 
ATOM     25  C18  11 d         -17.637 203.688 120.149  0.00  0.00     0.040 A 
ATOM     26 Cl1   11 d         -16.552 202.423 119.503  0.00  0.00    -0.084 Cl
ATOM     27  C19  11 d         -19.012 203.544 119.901  0.00  0.00     0.024 A 
ATOM     28  C20  11 d         -19.921 204.496 120.379  0.00  0.00     0.002 A 
ATOM     29  C21  11 d         -19.458 205.595 121.111  0.00  0.00     0.001 A 
ATOM     30  C22  11 d         -18.088 205.746 121.366  0.00  0.00     0.009 A 
ENDBRANCH  23  24
ENDBRANCH  21  23
ENDBRANCH   3  18
TORSDOF 7
ENDMDL
