MODEL 1
REMARK VINA RESULT:      -9.0      0.000      0.000
REMARK  0 active torsions:
REMARK  status: ('A' for Active; 'I' for Inactive)
ROOT
ATOM      1  C1   11 d          -9.988 208.803 115.064  0.00  0.00     0.163 C 
ATOM      2  C2   11 d         -10.803 208.185 113.967  0.00  0.00     0.051 A 
ATOM      3  C3   11 d         -10.232 208.112 112.573  0.00  0.00     0.069 A 
ATOM      4  N1   11 d         -10.845 207.654 111.528  0.00  0.00    -0.066 NA
ATOM      5  C4   11 d         -12.119 207.217 111.699  0.00  0.00     0.734 A 
ATOM      6  N2   11 d         -12.911 206.727 110.775  0.00  0.00    -0.060 NA
ATOM      7  C5   11 d         -14.088 206.449 111.400  0.00  0.00     0.103 A 
ATOM      8  C6   11 d         -14.036 206.764 112.758  0.00  0.00     0.086 A 
ATOM      9  N3   11 d         -12.735 207.227 112.956  0.00  0.00    -0.151 N 
ATOM     10  C7   11 d         -12.051 207.672 114.116  0.00  0.00     0.133 A 
ATOM     11  C8   11 d         -15.164 206.601 113.580  0.00  0.00     0.033 A 
ATOM     12  C9   11 d         -16.332 206.083 113.006  0.00  0.00     0.002 A 
ATOM     13  C10  11 d         -16.384 205.744 111.658  0.00  0.00     0.002 A 
ATOM     14  C11  11 d         -15.266 205.927 110.842  0.00  0.00     0.034 A 
ATOM     15  C12  11 d          -8.793 208.548 112.361  0.00  0.00     0.061 C 
ATOM     16  C13  11 d          -8.341 209.582 113.374  0.00  0.00     0.014 C 
ATOM     17  C14  11 d          -8.526 209.056 114.784  0.00  0.00     0.084 C 
ATOM     18  O1   11 d         -10.503 209.081 116.126  0.00  0.00    -0.292 OA
ENDROOT
TORSDOF 0
ENDMDL
MODEL 2
REMARK VINA RESULT:      -8.8      2.092      6.273
REMARK  0 active torsions:
REMARK  status: ('A' for Active; 'I' for Inactive)
ROOT
ATOM      1  C1   11 d         -14.492 206.094 111.059  0.00  0.00     0.163 C 
ATOM      2  C2   11 d         -13.527 206.599 112.090  0.00  0.00     0.051 A 
ATOM      3  C3   11 d         -13.944 206.635 113.539  0.00  0.00     0.069 A 
ATOM      4  N1   11 d         -13.233 207.093 114.519  0.00  0.00    -0.066 NA
ATOM      5  C4   11 d         -12.011 207.602 114.215  0.00  0.00     0.734 A 
ATOM      6  N2   11 d         -11.145 208.118 115.053  0.00  0.00    -0.060 NA
ATOM      7  C5   11 d         -10.083 208.514 114.298  0.00  0.00     0.103 A 
ATOM      8  C6   11 d         -10.281 208.231 112.946  0.00  0.00     0.086 A 
ATOM      9  N3   11 d         -11.523 207.599 112.903  0.00  0.00    -0.151 N 
ATOM     10  C7   11 d         -12.271 207.047 111.832  0.00  0.00     0.133 A 
ATOM     11  C8   11 d          -9.326 208.604 111.984  0.00  0.00     0.033 A 
ATOM     12  C9   11 d          -8.156 209.236 112.424  0.00  0.00     0.002 A 
ATOM     13  C10  11 d          -7.942 209.500 113.773  0.00  0.00     0.002 A 
ATOM     14  C11  11 d          -8.903 209.145 114.722  0.00  0.00     0.034 A 
ATOM     15  C12  11 d         -15.285 206.030 113.917  0.00  0.00     0.061 C 
ATOM     16  C13  11 d         -16.286 206.072 112.779  0.00  0.00     0.014 C 
ATOM     17  C14  11 d         -15.723 205.374 111.556  0.00  0.00     0.084 C 
ATOM     18  O1   11 d         -14.272 206.266 109.880  0.00  0.00    -0.292 OA
ENDROOT
TORSDOF 0
ENDMDL
MODEL 3
REMARK VINA RESULT:      -8.8      1.473      5.750
REMARK  0 active torsions:
REMARK  status: ('A' for Active; 'I' for Inactive)
ROOT
ATOM      1  C1   11 d         -15.125 206.552 113.553  0.00  0.00     0.163 C 
ATOM      2  C2   11 d         -13.818 206.973 112.948  0.00  0.00     0.051 A 
ATOM      3  C3   11 d         -13.548 206.679 111.494  0.00  0.00     0.069 A 
ATOM      4  N1   11 d         -12.448 206.938 110.862  0.00  0.00    -0.066 NA
ATOM      5  C4   11 d         -11.443 207.510 111.575  0.00  0.00     0.734 A 
ATOM      6  N2   11 d         -10.255 207.843 111.129  0.00  0.00    -0.060 NA
ATOM      7  C5   11 d          -9.585 208.357 112.198  0.00  0.00     0.103 A 
ATOM      8  C6   11 d         -10.374 208.355 113.348  0.00  0.00     0.086 A 
ATOM      9  N3   11 d         -11.600 207.839 112.926  0.00  0.00    -0.151 N 
ATOM     10  C7   11 d         -12.820 207.611 113.611  0.00  0.00     0.133 A 
ATOM     11  C8   11 d          -9.856 208.796 114.578  0.00  0.00     0.033 A 
ATOM     12  C9   11 d          -8.539 209.269 114.610  0.00  0.00     0.002 A 
ATOM     13  C10  11 d          -7.754 209.296 113.461  0.00  0.00     0.002 A 
ATOM     14  C11  11 d          -8.267 208.837 112.247  0.00  0.00     0.034 A 
ATOM     15  C12  11 d         -14.669 206.084 110.659  0.00  0.00     0.061 C 
ATOM     16  C13  11 d         -15.646 205.272 111.487  0.00  0.00     0.014 C 
ATOM     17  C14  11 d         -16.219 206.119 112.607  0.00  0.00     0.084 C 
ATOM     18  O1   11 d         -15.275 206.569 114.755  0.00  0.00    -0.292 OA
ENDROOT
TORSDOF 0
ENDMDL
MODEL 4
REMARK VINA RESULT:      -8.3      1.552      2.603
REMARK  0 active torsions:
REMARK  status: ('A' for Active; 'I' for Inactive)
ROOT
ATOM      1  C1   11 d          -8.540 208.704 112.773  0.00  0.00     0.163 C 
ATOM      2  C2   11 d          -9.934 208.291 113.142  0.00  0.00     0.051 A 
ATOM      3  C3   11 d         -10.388 208.417 114.574  0.00  0.00     0.069 A 
ATOM      4  N1   11 d         -11.540 208.050 115.037  0.00  0.00    -0.066 NA
ATOM      5  C4   11 d         -12.411 207.488 114.160  0.00  0.00     0.734 A 
ATOM      6  N2   11 d         -13.617 207.046 114.425  0.00  0.00    -0.060 NA
ATOM      7  C5   11 d         -14.101 206.552 113.252  0.00  0.00     0.103 A 
ATOM      8  C6   11 d         -13.178 206.694 112.215  0.00  0.00     0.086 A 
ATOM      9  N3   11 d         -12.092 207.343 112.804  0.00  0.00    -0.151 N 
ATOM     10  C7   11 d         -10.855 207.793 112.278  0.00  0.00     0.133 A 
ATOM     11  C8   11 d         -13.458 206.202 110.928  0.00  0.00     0.033 A 
ATOM     12  C9   11 d         -14.701 205.597 110.708  0.00  0.00     0.002 A 
ATOM     13  C10  11 d         -15.635 205.473 111.731  0.00  0.00     0.002 A 
ATOM     14  C11  11 d         -15.344 205.945 113.012  0.00  0.00     0.034 A 
ATOM     15  C12  11 d          -9.454 209.085 115.569  0.00  0.00     0.061 C 
ATOM     16  C13  11 d          -7.994 208.944 115.186  0.00  0.00     0.014 C 
ATOM     17  C14  11 d          -7.758 209.496 113.794  0.00  0.00     0.084 C 
ATOM     18  O1   11 d          -8.079 208.403 111.693  0.00  0.00    -0.292 OA
ENDROOT
TORSDOF 0
ENDMDL
MODEL 5
REMARK VINA RESULT:      -8.3      2.293      3.563
REMARK  0 active torsions:
REMARK  status: ('A' for Active; 'I' for Inactive)
ROOT
ATOM      1  C1   11 d         -10.746 208.416 115.955  0.00  0.00     0.163 C 
ATOM      2  C2   11 d         -12.079 207.839 115.579  0.00  0.00     0.051 A 
ATOM      3  C3   11 d         -12.872 207.077 116.610  0.00  0.00     0.069 A 
ATOM      4  N1   11 d         -14.006 206.486 116.407  0.00  0.00    -0.066 NA
ATOM      5  C4   11 d         -14.518 206.542 115.150  0.00  0.00     0.734 A 
ATOM      6  N2   11 d         -15.641 206.006 114.735  0.00  0.00    -0.060 NA
ATOM      7  C5   11 d         -15.729 206.301 113.408  0.00  0.00     0.103 A 
ATOM      8  C6   11 d         -14.634 207.050 112.975  0.00  0.00     0.086 A 
ATOM      9  N3   11 d         -13.867 207.239 114.125  0.00  0.00    -0.151 N 
ATOM     10  C7   11 d         -12.655 207.938 114.353  0.00  0.00     0.133 A 
ATOM     11  C8   11 d         -14.501 207.417 111.625  0.00  0.00     0.033 A 
ATOM     12  C9   11 d         -15.514 207.040 110.734  0.00  0.00     0.002 A 
ATOM     13  C10  11 d         -16.620 206.313 111.164  0.00  0.00     0.002 A 
ATOM     14  C11  11 d         -16.736 205.934 112.502  0.00  0.00     0.034 A 
ATOM     15  C12  11 d         -12.349 207.037 118.036  0.00  0.00     0.061 C 
ATOM     16  C13  11 d         -10.841 207.179 118.109  0.00  0.00     0.014 C 
ATOM     17  C14  11 d         -10.398 208.458 117.424  0.00  0.00     0.084 C 
ATOM     18  O1   11 d          -9.995 208.827 115.098  0.00  0.00    -0.292 OA
ENDROOT
TORSDOF 0
ENDMDL
MODEL 6
REMARK VINA RESULT:      -8.2      2.687      6.207
REMARK  0 active torsions:
REMARK  status: ('A' for Active; 'I' for Inactive)
ROOT
ATOM      1  C1   11 d         -13.900 206.779 111.013  0.00  0.00     0.163 C 
ATOM      2  C2   11 d         -13.869 206.819 112.512  0.00  0.00     0.051 A 
ATOM      3  C3   11 d         -15.131 206.532 113.285  0.00  0.00     0.069 A 
ATOM      4  N1   11 d         -15.256 206.584 114.573  0.00  0.00    -0.066 NA
ATOM      5  C4   11 d         -14.160 206.944 115.289  0.00  0.00     0.734 A 
ATOM      6  N2   11 d         -14.078 207.063 116.593  0.00  0.00    -0.060 NA
ATOM      7  C5   11 d         -12.803 207.464 116.853  0.00  0.00     0.103 A 
ATOM      8  C6   11 d         -12.057 207.593 115.682  0.00  0.00     0.086 A 
ATOM      9  N3   11 d         -12.935 207.213 114.667  0.00  0.00    -0.151 N 
ATOM     10  C7   11 d         -12.774 207.103 113.263  0.00  0.00     0.133 A 
ATOM     11  C8   11 d         -10.726 208.047 115.721  0.00  0.00     0.033 A 
ATOM     12  C9   11 d         -10.161 208.332 116.970  0.00  0.00     0.002 A 
ATOM     13  C10  11 d         -10.893 208.183 118.144  0.00  0.00     0.002 A 
ATOM     14  C11  11 d         -12.220 207.751 118.097  0.00  0.00     0.034 A 
ATOM     15  C12  11 d         -16.360 206.081 112.516  0.00  0.00     0.061 C 
ATOM     16  C13  11 d         -16.378 206.595 111.090  0.00  0.00     0.014 C 
ATOM     17  C14  11 d         -15.118 206.169 110.360  0.00  0.00     0.084 C 
ATOM     18  O1   11 d         -12.974 207.224 110.370  0.00  0.00    -0.292 OA
ENDROOT
TORSDOF 0
ENDMDL
MODEL 7
REMARK VINA RESULT:      -7.9      3.071      5.186
REMARK  0 active torsions:
REMARK  status: ('A' for Active; 'I' for Inactive)
ROOT
ATOM      1  C1   11 d         -14.086 205.263 116.687  0.00  0.00     0.163 C 
ATOM      2  C2   11 d         -13.044 206.035 115.933  0.00  0.00     0.051 A 
ATOM      3  C3   11 d         -12.106 206.943 116.687  0.00  0.00     0.069 A 
ATOM      4  N1   11 d         -11.200 207.701 116.158  0.00  0.00    -0.066 NA
ATOM      5  C4   11 d         -11.096 207.691 114.804  0.00  0.00     0.734 A 
ATOM      6  N2   11 d         -10.255 208.387 114.076  0.00  0.00    -0.060 NA
ATOM      7  C5   11 d         -10.532 208.072 112.781  0.00  0.00     0.103 A 
ATOM      8  C6   11 d         -11.571 207.146 112.689  0.00  0.00     0.086 A 
ATOM      9  N3   11 d         -11.908 206.870 114.014  0.00  0.00    -0.151 N 
ATOM     10  C7   11 d         -12.863 205.993 114.588  0.00  0.00     0.133 A 
ATOM     11  C8   11 d         -12.050 206.723 111.436  0.00  0.00     0.033 A 
ATOM     12  C9   11 d         -11.434 207.231 110.286  0.00  0.00     0.002 A 
ATOM     13  C10  11 d         -10.382 208.137 110.371  0.00  0.00     0.002 A 
ATOM     14  C11  11 d          -9.923 208.569 111.617  0.00  0.00     0.034 A 
ATOM     15  C12  11 d         -12.167 206.939 118.205  0.00  0.00     0.061 C 
ATOM     16  C13  11 d         -13.536 206.561 118.734  0.00  0.00     0.014 C 
ATOM     17  C14  11 d         -13.956 205.209 118.191  0.00  0.00     0.084 C 
ATOM     18  O1   11 d         -14.988 204.713 116.093  0.00  0.00    -0.292 OA
ENDROOT
TORSDOF 0
ENDMDL
MODEL 8
REMARK VINA RESULT:      -7.9      2.196      2.981
REMARK  0 active torsions:
REMARK  status: ('A' for Active; 'I' for Inactive)
ROOT
ATOM      1  C1   11 d         -12.958 207.291 117.689  0.00  0.00     0.163 C 
ATOM      2  C2   11 d         -12.913 207.247 116.191  0.00  0.00     0.051 A 
ATOM      3  C3   11 d         -11.635 207.616 115.479  0.00  0.00     0.069 A 
ATOM      4  N1   11 d         -11.474 207.671 114.195  0.00  0.00    -0.066 NA
ATOM      5  C4   11 d         -12.554 207.389 113.422  0.00  0.00     0.734 A 
ATOM      6  N2   11 d         -12.604 207.396 112.111  0.00  0.00    -0.060 NA
ATOM      7  C5   11 d         -13.887 207.076 111.784  0.00  0.00     0.103 A 
ATOM      8  C6   11 d         -14.666 206.853 112.919  0.00  0.00     0.086 A 
ATOM      9  N3   11 d         -13.781 207.019 113.985  0.00  0.00    -0.151 N 
ATOM     10  C7   11 d         -13.950 206.900 115.387  0.00  0.00     0.133 A 
ATOM     11  C8   11 d         -16.036 206.560 112.807  0.00  0.00     0.033 A 
ATOM     12  C9   11 d         -16.589 206.464 111.524  0.00  0.00     0.002 A 
ATOM     13  C10  11 d         -15.812 206.661 110.387  0.00  0.00     0.002 A 
ATOM     14  C11  11 d         -14.457 206.973 110.505  0.00  0.00     0.034 A 
ATOM     15  C12  11 d         -10.398 207.889 116.316  0.00  0.00     0.061 C 
ATOM     16  C13  11 d         -10.733 208.398 117.705  0.00  0.00     0.014 C 
ATOM     17  C14  11 d         -11.642 207.417 118.420  0.00  0.00     0.084 C 
ATOM     18  O1   11 d         -14.019 207.224 118.271  0.00  0.00    -0.292 OA
ENDROOT
TORSDOF 0
ENDMDL
MODEL 9
REMARK VINA RESULT:      -7.7      2.626      5.078
REMARK  0 active torsions:
REMARK  status: ('A' for Active; 'I' for Inactive)
ROOT
ATOM      1  C1   11 d         -12.612 205.779 117.522  0.00  0.00     0.163 C 
ATOM      2  C2   11 d         -12.765 205.997 116.046  0.00  0.00     0.051 A 
ATOM      3  C3   11 d         -13.949 205.399 115.329  0.00  0.00     0.069 A 
ATOM      4  N1   11 d         -14.174 205.465 114.056  0.00  0.00    -0.066 NA
ATOM      5  C4   11 d         -13.256 206.116 113.297  0.00  0.00     0.734 A 
ATOM      6  N2   11 d         -13.291 206.288 111.996  0.00  0.00    -0.060 NA
ATOM      7  C5   11 d         -12.158 206.972 111.678  0.00  0.00     0.103 A 
ATOM      8  C6   11 d         -11.389 207.247 112.809  0.00  0.00     0.086 A 
ATOM      9  N3   11 d         -12.131 206.722 113.868  0.00  0.00    -0.151 N 
ATOM     10  C7   11 d         -11.906 206.704 115.268  0.00  0.00     0.133 A 
ATOM     11  C8   11 d         -10.150 207.902 112.698  0.00  0.00     0.033 A 
ATOM     12  C9   11 d          -9.726 208.301 111.424  0.00  0.00     0.002 A 
ATOM     13  C10  11 d         -10.498 208.051 110.294  0.00  0.00     0.002 A 
ATOM     14  C11  11 d         -11.718 207.382 110.409  0.00  0.00     0.034 A 
ATOM     15  C12  11 d         -15.018 204.706 116.158  0.00  0.00     0.061 C 
ATOM     16  C13  11 d         -14.474 204.133 117.451  0.00  0.00     0.014 C 
ATOM     17  C14  11 d         -13.801 205.220 118.268  0.00  0.00     0.084 C 
ATOM     18  O1   11 d         -11.568 206.048 118.075  0.00  0.00    -0.292 OA
ENDROOT
TORSDOF 0
ENDMDL
MODEL 10
REMARK VINA RESULT:      -7.5      3.676      4.993
REMARK  0 active torsions:
REMARK  status: ('A' for Active; 'I' for Inactive)
ROOT
ATOM      1  C1   11 d         -14.258 204.820 118.074  0.00  0.00     0.163 C 
ATOM      2  C2   11 d         -14.126 205.656 116.836  0.00  0.00     0.051 A 
ATOM      3  C3   11 d         -13.853 207.133 116.967  0.00  0.00     0.069 A 
ATOM      4  N1   11 d         -13.768 207.977 115.988  0.00  0.00    -0.066 NA
ATOM      5  C4   11 d         -13.959 207.492 114.734  0.00  0.00     0.734 A 
ATOM      6  N2   11 d         -13.922 208.175 113.615  0.00  0.00    -0.060 NA
ATOM      7  C5   11 d         -14.190 207.282 112.623  0.00  0.00     0.103 A 
ATOM      8  C6   11 d         -14.393 205.998 113.129  0.00  0.00     0.086 A 
ATOM      9  N3   11 d         -14.200 206.133 114.504  0.00  0.00    -0.151 N 
ATOM     10  C7   11 d         -14.237 205.193 115.565  0.00  0.00     0.133 A 
ATOM     11  C8   11 d         -14.733 204.932 112.277  0.00  0.00     0.033 A 
ATOM     12  C9   11 d         -14.830 205.189 110.903  0.00  0.00     0.002 A 
ATOM     13  C10  11 d         -14.607 206.462 110.389  0.00  0.00     0.002 A 
ATOM     14  C11  11 d         -14.289 207.521 111.243  0.00  0.00     0.034 A 
ATOM     15  C12  11 d         -13.589 207.696 118.354  0.00  0.00     0.061 C 
ATOM     16  C13  11 d         -14.261 206.891 119.449  0.00  0.00     0.014 C 
ATOM     17  C14  11 d         -13.823 205.440 119.380  0.00  0.00     0.084 C 
ATOM     18  O1   11 d         -14.699 203.693 118.006  0.00  0.00    -0.292 OA
ENDROOT
TORSDOF 0
ENDMDL
