MODEL 1
REMARK VINA RESULT:      -9.5      0.000      0.000
REMARK  2 active torsions:
REMARK  status: ('A' for Active; 'I' for Inactive)
REMARK    1  A    between atoms: N3_15  and  C13_16 
REMARK    2  A    between atoms: C13_16  and  C14_17 
ROOT
ATOM      1  C1   11 d         -13.134 207.712 113.770  0.00  0.00     0.137 A 
ATOM      2  C2   11 d         -13.958 207.027 112.667  0.00  0.00     0.023 C 
ATOM      3  C3   11 d         -15.455 207.480 112.761  0.00  0.00     0.022 C 
ATOM      4  C4   11 d         -16.337 206.764 111.713  0.00  0.00    -0.013 C 
ATOM      5  C5   11 d         -16.265 205.238 111.945  0.00  0.00     0.009 C 
ATOM      6  C6   11 d         -14.799 204.765 111.815  0.00  0.00    -0.013 C 
ATOM      7  C7   11 d         -13.929 205.485 112.877  0.00  0.00     0.022 C 
ATOM      8  C8   11 d         -14.276 205.103 110.398  0.00  0.00     0.009 C 
ATOM      9  C9   11 d         -14.355 206.632 110.166  0.00  0.00    -0.013 C 
ATOM     10  C10  11 d         -13.479 207.352 111.219  0.00  0.00     0.022 C 
ATOM     11  C11  11 d         -15.820 207.102 110.298  0.00  0.00     0.009 C 
ATOM     12  N1   11 d         -13.737 208.365 114.795  0.00  0.00    -0.158 NA
ATOM     13  N2   11 d         -12.833 208.866 115.571  0.00  0.00    -0.251 N 
ATOM     14  C12  11 d         -11.622 208.577 115.078  0.00  0.00     0.196 A 
ATOM     15  N3   11 d         -11.781 207.896 113.912  0.00  0.00    -0.308 N 
ATOM     16  S1   11 d         -10.376 208.918 115.748  0.00  0.00    -0.039 SA
ATOM     17  H16  11 d         -13.034 209.403 116.451  0.00  0.00     0.191 HD
ENDROOT
BRANCH  15  18
ATOM     18  C13  11 d         -10.690 207.318 113.098  0.00  0.00     0.136 C 
BRANCH  18  19
ATOM     19  C14  11 d          -9.977 208.350 112.189  0.00  0.00    -0.004 C 
ATOM     20  C15  11 d         -10.257 208.044 110.709  0.00  0.00     0.011 C 
ATOM     21  C16  11 d          -8.464 208.427 112.431  0.00  0.00     0.011 C 
ENDBRANCH  18  19
ENDBRANCH  15  18
TORSDOF 2
ENDMDL
MODEL 2
REMARK VINA RESULT:      -9.0      1.737      2.473
REMARK  2 active torsions:
REMARK  status: ('A' for Active; 'I' for Inactive)
REMARK    1  A    between atoms: N3_15  and  C13_16 
REMARK    2  A    between atoms: C13_16  and  C14_17 
ROOT
ATOM      1  C1   11 d         -14.131 206.596 114.928  0.00  0.00     0.137 A 
ATOM      2  C2   11 d         -14.430 206.471 113.425  0.00  0.00     0.023 C 
ATOM      3  C3   11 d         -15.706 205.586 113.207  0.00  0.00     0.022 C 
ATOM      4  C4   11 d         -16.006 205.375 111.706  0.00  0.00    -0.013 C 
ATOM      5  C5   11 d         -14.799 204.680 111.038  0.00  0.00     0.009 C 
ATOM      6  C6   11 d         -13.539 205.560 111.206  0.00  0.00    -0.013 C 
ATOM      7  C7   11 d         -13.245 205.755 112.716  0.00  0.00     0.022 C 
ATOM      8  C8   11 d         -13.783 206.936 110.542  0.00  0.00     0.009 C 
ATOM      9  C9   11 d         -14.997 207.627 111.209  0.00  0.00    -0.013 C 
ATOM     10  C10  11 d         -14.701 207.832 112.714  0.00  0.00     0.022 C 
ATOM     11  C11  11 d         -16.253 206.746 111.040  0.00  0.00     0.009 C 
ATOM     12  N1   11 d         -14.750 205.801 115.837  0.00  0.00    -0.158 NA
ATOM     13  N2   11 d         -14.344 206.114 117.023  0.00  0.00    -0.251 N 
ATOM     14  C12  11 d         -13.469 207.124 116.935  0.00  0.00     0.196 A 
ATOM     15  N3   11 d         -13.356 207.485 115.629  0.00  0.00    -0.308 N 
ATOM     16  S1   11 d         -12.750 207.670 118.076  0.00  0.00    -0.039 SA
ATOM     17  H16  11 d         -14.654 205.635 117.904  0.00  0.00     0.191 HD
ENDROOT
BRANCH  15  18
ATOM     18  C13  11 d         -12.425 208.504 115.097  0.00  0.00     0.136 C 
BRANCH  18  19
ATOM     19  C14  11 d         -11.011 207.954 114.783  0.00  0.00    -0.004 C 
ATOM     20  C15  11 d          -9.950 208.703 115.605  0.00  0.00     0.011 C 
ATOM     21  C16  11 d         -10.657 208.012 113.292  0.00  0.00     0.011 C 
ENDBRANCH  18  19
ENDBRANCH  15  18
TORSDOF 2
ENDMDL
MODEL 3
REMARK VINA RESULT:      -8.8      1.701      3.534
REMARK  2 active torsions:
REMARK  status: ('A' for Active; 'I' for Inactive)
REMARK    1  A    between atoms: N3_15  and  C13_16 
REMARK    2  A    between atoms: C13_16  and  C14_17 
ROOT
ATOM      1  C1   11 d         -12.342 207.413 113.489  0.00  0.00     0.137 A 
ATOM      2  C2   11 d         -13.465 206.812 112.628  0.00  0.00     0.023 C 
ATOM      3  C3   11 d         -12.965 206.627 111.154  0.00  0.00     0.022 C 
ATOM      4  C4   11 d         -14.083 206.088 110.233  0.00  0.00    -0.013 C 
ATOM      5  C5   11 d         -15.267 207.081 110.235  0.00  0.00     0.009 C 
ATOM      6  C6   11 d         -15.801 207.244 111.677  0.00  0.00    -0.013 C 
ATOM      7  C7   11 d         -14.672 207.794 112.586  0.00  0.00     0.022 C 
ATOM      8  C8   11 d         -16.272 205.868 112.206  0.00  0.00     0.009 C 
ATOM      9  C9   11 d         -15.085 204.873 112.197  0.00  0.00    -0.013 C 
ATOM     10  C10  11 d         -13.961 205.415 113.112  0.00  0.00     0.022 C 
ATOM     11  C11  11 d         -14.553 204.714 110.756  0.00  0.00     0.009 C 
ATOM     12  N1   11 d         -11.226 207.938 112.924  0.00  0.00    -0.158 NA
ATOM     13  N2   11 d         -10.433 208.357 113.855  0.00  0.00    -0.251 N 
ATOM     14  C12  11 d         -10.988 208.109 115.048  0.00  0.00     0.196 A 
ATOM     15  N3   11 d         -12.169 207.465 114.850  0.00  0.00    -0.308 N 
ATOM     16  S1   11 d         -10.404 208.528 116.313  0.00  0.00    -0.039 SA
ATOM     17  H16  11 d          -9.510 208.825 113.684  0.00  0.00     0.191 HD
ENDROOT
BRANCH  15  18
ATOM     18  C13  11 d         -13.132 207.091 115.908  0.00  0.00     0.136 C 
BRANCH  18  19
ATOM     19  C14  11 d         -12.922 205.660 116.466  0.00  0.00    -0.004 C 
ATOM     20  C15  11 d         -14.272 204.946 116.630  0.00  0.00     0.011 C 
ATOM     21  C16  11 d         -12.150 205.635 117.791  0.00  0.00     0.011 C 
ENDBRANCH  18  19
ENDBRANCH  15  18
TORSDOF 2
ENDMDL
MODEL 4
REMARK VINA RESULT:      -8.5      1.740      3.357
REMARK  2 active torsions:
REMARK  status: ('A' for Active; 'I' for Inactive)
REMARK    1  A    between atoms: N3_15  and  C13_16 
REMARK    2  A    between atoms: C13_16  and  C14_17 
ROOT
ATOM      1  C1   11 d         -11.591 207.533 111.870  0.00  0.00     0.137 A 
ATOM      2  C2   11 d         -13.005 206.931 111.938  0.00  0.00     0.023 C 
ATOM      3  C3   11 d         -13.551 206.689 110.488  0.00  0.00     0.022 C 
ATOM      4  C4   11 d         -14.998 206.148 110.505  0.00  0.00    -0.013 C 
ATOM      5  C5   11 d         -15.915 207.168 111.217  0.00  0.00     0.009 C 
ATOM      6  C6   11 d         -15.416 207.388 112.663  0.00  0.00    -0.013 C 
ATOM      7  C7   11 d         -13.967 207.940 112.630  0.00  0.00     0.022 C 
ATOM      8  C8   11 d         -15.443 206.042 113.424  0.00  0.00     0.009 C 
ATOM      9  C9   11 d         -14.529 205.019 112.706  0.00  0.00    -0.013 C 
ATOM     10  C10  11 d         -13.080 205.563 112.681  0.00  0.00     0.022 C 
ATOM     11  C11  11 d         -15.029 204.803 111.261  0.00  0.00     0.009 C 
ATOM     12  N1   11 d         -11.086 208.013 110.706  0.00  0.00    -0.158 NA
ATOM     13  N2   11 d          -9.884 208.442 110.908  0.00  0.00    -0.251 N 
ATOM     14  C12  11 d          -9.557 208.245 112.192  0.00  0.00     0.196 A 
ATOM     15  N3   11 d         -10.596 207.623 112.811  0.00  0.00    -0.308 N 
ATOM     16  S1   11 d          -8.305 208.689 112.784  0.00  0.00    -0.039 SA
ATOM     17  H16  11 d          -9.277 208.883 110.173  0.00  0.00     0.191 HD
ENDROOT
BRANCH  15  18
ATOM     18  C13  11 d         -10.671 207.305 114.253  0.00  0.00     0.136 C 
BRANCH  18  19
ATOM     19  C14  11 d         -11.393 208.388 115.094  0.00  0.00    -0.004 C 
ATOM     20  C15  11 d         -10.399 209.088 116.033  0.00  0.00     0.011 C 
ATOM     21  C16  11 d         -12.578 207.839 115.899  0.00  0.00     0.011 C 
ENDBRANCH  18  19
ENDBRANCH  15  18
TORSDOF 2
ENDMDL
MODEL 5
REMARK VINA RESULT:      -8.0      2.578      5.084
REMARK  2 active torsions:
REMARK  status: ('A' for Active; 'I' for Inactive)
REMARK    1  A    between atoms: N3_15  and  C13_16 
REMARK    2  A    between atoms: C13_16  and  C14_17 
ROOT
ATOM      1  C1   11 d         -11.667 207.374 113.288  0.00  0.00     0.137 A 
ATOM      2  C2   11 d         -12.243 207.016 114.668  0.00  0.00     0.023 C 
ATOM      3  C3   11 d         -11.646 207.969 115.759  0.00  0.00     0.022 C 
ATOM      4  C4   11 d         -12.144 207.601 117.175  0.00  0.00    -0.013 C 
ATOM      5  C5   11 d         -11.726 206.150 117.502  0.00  0.00     0.009 C 
ATOM      6  C6   11 d         -12.342 205.190 116.458  0.00  0.00    -0.013 C 
ATOM      7  C7   11 d         -11.826 205.564 115.045  0.00  0.00     0.022 C 
ATOM      8  C8   11 d         -13.884 205.311 116.499  0.00  0.00     0.009 C 
ATOM      9  C9   11 d         -14.300 206.768 116.178  0.00  0.00    -0.013 C 
ATOM     10  C10  11 d         -13.795 207.140 114.763  0.00  0.00     0.022 C 
ATOM     11  C11  11 d         -13.682 207.724 117.220  0.00  0.00     0.009 C 
ATOM     12  N1   11 d         -10.602 208.206 113.165  0.00  0.00    -0.158 NA
ATOM     13  N2   11 d         -10.327 208.363 111.912  0.00  0.00    -0.251 N 
ATOM     14  C12  11 d         -11.201 207.661 111.179  0.00  0.00     0.196 A 
ATOM     15  N3   11 d         -12.093 207.071 112.019  0.00  0.00    -0.308 N 
ATOM     16  S1   11 d         -11.130 207.545 109.731  0.00  0.00    -0.039 SA
ATOM     17  H16  11 d          -9.532 208.942 111.545  0.00  0.00     0.191 HD
ENDROOT
BRANCH  15  18
ATOM     18  C13  11 d         -13.167 206.139 111.614  0.00  0.00     0.136 C 
BRANCH  18  19
ATOM     19  C14  11 d         -14.534 206.830 111.373  0.00  0.00    -0.004 C 
ATOM     20  C15  11 d         -15.684 205.903 111.795  0.00  0.00     0.011 C 
ATOM     21  C16  11 d         -14.734 207.287 109.923  0.00  0.00     0.011 C 
ENDBRANCH  18  19
ENDBRANCH  15  18
TORSDOF 2
ENDMDL
MODEL 6
REMARK VINA RESULT:      -8.0      2.434      3.885
REMARK  2 active torsions:
REMARK  status: ('A' for Active; 'I' for Inactive)
REMARK    1  A    between atoms: N3_15  and  C13_16 
REMARK    2  A    between atoms: C13_16  and  C14_17 
ROOT
ATOM      1  C1   11 d         -14.291 207.332 114.771  0.00  0.00     0.137 A 
ATOM      2  C2   11 d         -14.549 206.807 113.349  0.00  0.00     0.023 C 
ATOM      3  C3   11 d         -14.846 208.006 112.384  0.00  0.00     0.022 C 
ATOM      4  C4   11 d         -15.180 207.521 110.955  0.00  0.00    -0.013 C 
ATOM      5  C5   11 d         -16.423 206.605 111.005  0.00  0.00     0.009 C 
ATOM      6  C6   11 d         -16.133 205.393 111.921  0.00  0.00    -0.013 C 
ATOM      7  C7   11 d         -15.810 205.894 113.352  0.00  0.00     0.022 C 
ATOM      8  C8   11 d         -14.926 204.605 111.360  0.00  0.00     0.009 C 
ATOM      9  C9   11 d         -13.683 205.527 111.304  0.00  0.00    -0.013 C 
ATOM     10  C10  11 d         -13.352 206.020 112.733  0.00  0.00     0.022 C 
ATOM     11  C11  11 d         -13.976 206.737 110.391  0.00  0.00     0.009 C 
ATOM     12  N1   11 d         -14.577 208.614 115.110  0.00  0.00    -0.158 NA
ATOM     13  N2   11 d         -14.253 208.811 116.346  0.00  0.00    -0.251 N 
ATOM     14  C12  11 d         -13.734 207.683 116.848  0.00  0.00     0.196 A 
ATOM     15  N3   11 d         -13.695 206.748 115.861  0.00  0.00    -0.308 N 
ATOM     16  S1   11 d         -13.340 207.525 118.240  0.00  0.00    -0.039 SA
ATOM     17  H16  11 d         -14.392 209.714 116.861  0.00  0.00     0.191 HD
ENDROOT
BRANCH  15  18
ATOM     18  C13  11 d         -13.271 205.342 116.026  0.00  0.00     0.136 C 
BRANCH  18  19
ATOM     19  C14  11 d         -14.174 204.526 116.985  0.00  0.00    -0.004 C 
ATOM     20  C15  11 d         -13.479 203.219 117.395  0.00  0.00     0.011 C 
ATOM     21  C16  11 d         -15.559 204.221 116.399  0.00  0.00     0.011 C 
ENDBRANCH  18  19
ENDBRANCH  15  18
TORSDOF 2
ENDMDL
MODEL 7
REMARK VINA RESULT:      -7.9      2.717      3.891
REMARK  2 active torsions:
REMARK  status: ('A' for Active; 'I' for Inactive)
REMARK    1  A    between atoms: N3_15  and  C13_16 
REMARK    2  A    between atoms: C13_16  and  C14_17 
ROOT
ATOM      1  C1   11 d         -10.090 208.188 115.713  0.00  0.00     0.137 A 
ATOM      2  C2   11 d         -11.540 207.833 115.344  0.00  0.00     0.023 C 
ATOM      3  C3   11 d         -12.318 207.371 116.624  0.00  0.00     0.022 C 
ATOM      4  C4   11 d         -13.763 206.937 116.290  0.00  0.00    -0.013 C 
ATOM      5  C5   11 d         -13.724 205.766 115.283  0.00  0.00     0.009 C 
ATOM      6  C6   11 d         -12.996 206.218 113.996  0.00  0.00    -0.013 C 
ATOM      7  C7   11 d         -11.546 206.640 114.345  0.00  0.00     0.022 C 
ATOM      8  C8   11 d         -13.752 207.416 113.374  0.00  0.00     0.009 C 
ATOM      9  C9   11 d         -13.796 208.586 114.388  0.00  0.00    -0.013 C 
ATOM     10  C10  11 d         -12.349 209.016 114.729  0.00  0.00     0.022 C 
ATOM     11  C11  11 d         -14.521 208.132 115.673  0.00  0.00     0.009 C 
ATOM     12  N1   11 d          -9.569 207.852 116.920  0.00  0.00    -0.158 NA
ATOM     13  N2   11 d          -8.350 208.277 116.990  0.00  0.00    -0.251 N 
ATOM     14  C12  11 d          -8.040 208.912 115.853  0.00  0.00     0.196 A 
ATOM     15  N3   11 d          -9.137 208.919 115.049  0.00  0.00    -0.308 N 
ATOM     16  S1   11 d          -6.717 209.442 115.560  0.00  0.00    -0.039 SA
ATOM     17  H16  11 d          -7.715 208.128 117.812  0.00  0.00     0.191 HD
ENDROOT
BRANCH  15  18
ATOM     18  C13  11 d          -9.187 209.446 113.669  0.00  0.00     0.136 C 
BRANCH  18  19
ATOM     19  C14  11 d          -8.954 208.368 112.580  0.00  0.00    -0.004 C 
ATOM     20  C15  11 d          -7.554 208.521 111.966  0.00  0.00     0.011 C 
ATOM     21  C16  11 d         -10.016 208.386 111.474  0.00  0.00     0.011 C 
ENDBRANCH  18  19
ENDBRANCH  15  18
TORSDOF 2
ENDMDL
MODEL 8
REMARK VINA RESULT:      -7.7      2.901      4.822
REMARK  2 active torsions:
REMARK  status: ('A' for Active; 'I' for Inactive)
REMARK    1  A    between atoms: N3_15  and  C13_16 
REMARK    2  A    between atoms: C13_16  and  C14_17 
ROOT
ATOM      1  C1   11 d         -13.925 206.887 113.435  0.00  0.00     0.137 A 
ATOM      2  C2   11 d         -13.345 206.759 114.853  0.00  0.00     0.023 C 
ATOM      3  C3   11 d         -14.508 206.619 115.894  0.00  0.00     0.022 C 
ATOM      4  C4   11 d         -13.974 206.556 117.343  0.00  0.00    -0.013 C 
ATOM      5  C5   11 d         -13.185 207.848 117.652  0.00  0.00     0.009 C 
ATOM      6  C6   11 d         -12.007 207.982 116.660  0.00  0.00    -0.013 C 
ATOM      7  C7   11 d         -12.558 208.053 115.212  0.00  0.00     0.022 C 
ATOM      8  C8   11 d         -11.076 206.754 116.803  0.00  0.00     0.009 C 
ATOM      9  C9   11 d         -11.871 205.460 116.499  0.00  0.00    -0.013 C 
ATOM     10  C10  11 d         -12.412 205.525 115.051  0.00  0.00     0.022 C 
ATOM     11  C11  11 d         -13.047 205.330 117.490  0.00  0.00     0.009 C 
ATOM     12  N1   11 d         -15.246 207.121 113.234  0.00  0.00    -0.158 NA
ATOM     13  N2   11 d         -15.483 207.166 111.964  0.00  0.00    -0.251 N 
ATOM     14  C12  11 d         -14.342 206.949 111.297  0.00  0.00     0.196 A 
ATOM     15  N3   11 d         -13.352 206.716 112.200  0.00  0.00    -0.308 N 
ATOM     16  S1   11 d         -14.229 207.014 109.848  0.00  0.00    -0.039 SA
ATOM     17  H16  11 d         -16.424 207.356 111.540  0.00  0.00     0.191 HD
ENDROOT
BRANCH  15  18
ATOM     18  C13  11 d         -11.923 206.517 111.875  0.00  0.00     0.136 C 
BRANCH  18  19
ATOM     19  C14  11 d         -11.107 207.833 111.820  0.00  0.00    -0.004 C 
ATOM     20  C15  11 d         -10.532 208.049 110.412  0.00  0.00     0.011 C 
ATOM     21  C16  11 d          -9.980 207.890 112.861  0.00  0.00     0.011 C 
ENDBRANCH  18  19
ENDBRANCH  15  18
TORSDOF 2
ENDMDL
MODEL 9
REMARK VINA RESULT:      -7.6      3.593      5.036
REMARK  2 active torsions:
REMARK  status: ('A' for Active; 'I' for Inactive)
REMARK    1  A    between atoms: N3_15  and  C13_16 
REMARK    2  A    between atoms: C13_16  and  C14_17 
ROOT
ATOM      1  C1   11 d         -14.080 205.503 116.692  0.00  0.00     0.137 A 
ATOM      2  C2   11 d         -13.667 206.177 115.373  0.00  0.00     0.023 C 
ATOM      3  C3   11 d         -14.494 205.574 114.185  0.00  0.00     0.022 C 
ATOM      4  C4   11 d         -14.063 206.173 112.826  0.00  0.00    -0.013 C 
ATOM      5  C5   11 d         -12.566 205.875 112.590  0.00  0.00     0.009 C 
ATOM      6  C6   11 d         -11.730 206.499 113.732  0.00  0.00    -0.013 C 
ATOM      7  C7   11 d         -12.166 205.883 115.086  0.00  0.00     0.022 C 
ATOM      8  C8   11 d         -11.961 208.029 113.758  0.00  0.00     0.009 C 
ATOM      9  C9   11 d         -13.464 208.324 113.988  0.00  0.00    -0.013 C 
ATOM     10  C10  11 d         -13.898 207.719 115.344  0.00  0.00     0.022 C 
ATOM     11  C11  11 d         -14.296 207.699 112.848  0.00  0.00     0.009 C 
ATOM     12  N1   11 d         -14.838 204.378 116.700  0.00  0.00    -0.158 NA
ATOM     13  N2   11 d         -15.063 204.025 117.923  0.00  0.00    -0.251 N 
ATOM     14  C12  11 d         -14.482 204.905 118.748  0.00  0.00     0.196 A 
ATOM     15  N3   11 d         -13.900 205.880 117.999  0.00  0.00    -0.308 N 
ATOM     16  S1   11 d         -14.465 204.764 120.196  0.00  0.00    -0.039 SA
ATOM     17  H16  11 d         -15.607 203.173 118.206  0.00  0.00     0.191 HD
ENDROOT
BRANCH  15  18
ATOM     18  C13  11 d         -13.082 206.993 118.525  0.00  0.00     0.136 C 
BRANCH  18  19
ATOM     19  C14  11 d         -11.565 206.839 118.246  0.00  0.00    -0.004 C 
ATOM     20  C15  11 d         -10.901 205.995 119.345  0.00  0.00     0.011 C 
ATOM     21  C16  11 d         -10.836 208.181 118.104  0.00  0.00     0.011 C 
ENDBRANCH  18  19
ENDBRANCH  15  18
TORSDOF 2
ENDMDL
MODEL 10
REMARK VINA RESULT:      -7.2      2.796      3.948
REMARK  2 active torsions:
REMARK  status: ('A' for Active; 'I' for Inactive)
REMARK    1  A    between atoms: N3_15  and  C13_16 
REMARK    2  A    between atoms: C13_16  and  C14_17 
ROOT
ATOM      1  C1   11 d         -11.985 206.479 116.945  0.00  0.00     0.137 A 
ATOM      2  C2   11 d         -12.792 206.676 115.651  0.00  0.00     0.023 C 
ATOM      3  C3   11 d         -14.013 205.693 115.629  0.00  0.00     0.022 C 
ATOM      4  C4   11 d         -14.816 205.806 114.313  0.00  0.00    -0.013 C 
ATOM      5  C5   11 d         -13.890 205.474 113.122  0.00  0.00     0.009 C 
ATOM      6  C6   11 d         -12.700 206.462 113.103  0.00  0.00    -0.013 C 
ATOM      7  C7   11 d         -11.900 206.330 114.423  0.00  0.00     0.022 C 
ATOM      8  C8   11 d         -13.237 207.906 112.961  0.00  0.00     0.009 C 
ATOM      9  C9   11 d         -14.170 208.234 114.153  0.00  0.00    -0.013 C 
ATOM     10  C10  11 d         -13.369 208.113 115.472  0.00  0.00     0.022 C 
ATOM     11  C11  11 d         -15.355 207.245 114.171  0.00  0.00     0.009 C 
ATOM     12  N1   11 d         -12.198 205.408 117.751  0.00  0.00    -0.158 NA
ATOM     13  N2   11 d         -11.414 205.484 118.776  0.00  0.00    -0.251 N 
ATOM     14  C12  11 d         -10.681 206.601 118.686  0.00  0.00     0.196 A 
ATOM     15  N3   11 d         -11.059 207.277 117.569  0.00  0.00    -0.308 N 
ATOM     16  S1   11 d          -9.634 206.957 119.631  0.00  0.00    -0.039 SA
ATOM     17  H16  11 d         -11.364 204.767 119.541  0.00  0.00     0.191 HD
ENDROOT
BRANCH  15  18
ATOM     18  C13  11 d         -10.434 208.518 117.063  0.00  0.00     0.136 C 
BRANCH  18  19
ATOM     19  C14  11 d          -9.357 208.275 115.975  0.00  0.00    -0.004 C 
ATOM     20  C15  11 d          -7.950 208.475 116.560  0.00  0.00     0.011 C 
ATOM     21  C16  11 d          -9.539 209.159 114.734  0.00  0.00     0.011 C 
ENDBRANCH  18  19
ENDBRANCH  15  18
TORSDOF 2
ENDMDL
