MODEL 1
REMARK VINA RESULT:     -10.0      0.000      0.000
REMARK  0 active torsions:
REMARK  status: ('A' for Active; 'I' for Inactive)
ROOT
ATOM      1  C1   11 d         -10.623 207.867 111.019  0.00  0.00     0.299 A 
ATOM      2  C2   11 d         -11.357 207.628 112.210  0.00  0.00     0.051 A 
ATOM      3  C3   11 d         -12.768 207.138 112.202  0.00  0.00    -0.020 A 
ATOM      4  C4   11 d         -13.718 207.681 113.096  0.00  0.00     0.014 A 
ATOM      5  C5   11 d         -15.045 207.222 113.096  0.00  0.00     0.024 A 
ATOM      6  C6   11 d         -15.441 206.215 112.205  0.00  0.00     0.034 A 
ATOM      7 Cl1   11 d         -17.124 205.637 112.207  0.00  0.00    -0.084 Cl
ATOM      8  C7   11 d         -14.509 205.665 111.314  0.00  0.00     0.024 A 
ATOM      9  C8   11 d         -13.182 206.120 111.313  0.00  0.00     0.014 A 
ATOM     10  C9   11 d         -10.705 207.876 113.436  0.00  0.00     0.032 A 
ATOM     11  C10  11 d          -9.381 208.338 113.453  0.00  0.00    -0.000 A 
ATOM     12  C11  11 d          -8.728 208.538 112.201  0.00  0.00     0.092 A 
ATOM     13  O1   11 d          -9.374 208.296 111.075  0.00  0.00    -0.274 OA
ATOM     14  C12  11 d          -7.396 208.998 112.157  0.00  0.00     0.076 A 
ATOM     15  C13  11 d          -6.749 209.252 113.370  0.00  0.00     0.088 A 
ATOM     16  C14  11 d          -7.383 209.067 114.582  0.00  0.00     0.006 A 
ATOM     17  C15  11 d          -6.463 209.429 115.547  0.00  0.00    -0.027 A 
ATOM     18  C16  11 d          -5.317 209.749 114.820  0.00  0.00     0.150 A 
ATOM     19  O2   11 d          -5.516 209.660 113.523  0.00  0.00    -0.321 OA
ATOM     20  C17  11 d          -6.567 209.259 117.033  0.00  0.00     0.051 C 
ATOM     21  C18  11 d          -8.701 208.600 114.665  0.00  0.00     0.029 A 
ATOM     22  O3   11 d         -11.157 207.708 109.893  0.00  0.00    -0.259 OA
ENDROOT
TORSDOF 0
ENDMDL
MODEL 2
REMARK VINA RESULT:      -9.5      3.650      7.789
REMARK  0 active torsions:
REMARK  status: ('A' for Active; 'I' for Inactive)
ROOT
ATOM      1  C1   11 d          -9.833 208.961 114.657  0.00  0.00     0.299 A 
ATOM      2  C2   11 d          -9.291 208.247 113.558  0.00  0.00     0.051 A 
ATOM      3  C3   11 d          -7.838 208.283 113.210  0.00  0.00    -0.020 A 
ATOM      4  C4   11 d          -7.428 208.387 111.862  0.00  0.00     0.014 A 
ATOM      5  C5   11 d          -6.065 208.417 111.529  0.00  0.00     0.024 A 
ATOM      6  C6   11 d          -5.092 208.346 112.537  0.00  0.00     0.034 A 
ATOM      7 Cl1   11 d          -3.365 208.387 112.112  0.00  0.00    -0.084 Cl
ATOM      8  C7   11 d          -5.485 208.241 113.879  0.00  0.00     0.024 A 
ATOM      9  C8   11 d          -6.847 208.207 114.214  0.00  0.00     0.014 A 
ATOM     10  C9   11 d         -10.182 207.484 112.774  0.00  0.00     0.032 A 
ATOM     11  C10  11 d         -11.548 207.446 113.092  0.00  0.00    -0.000 A 
ATOM     12  C11  11 d         -11.992 208.193 114.223  0.00  0.00     0.092 A 
ATOM     13  O1   11 d         -11.125 208.895 114.929  0.00  0.00    -0.274 OA
ATOM     14  C12  11 d         -13.353 208.188 114.591  0.00  0.00     0.076 A 
ATOM     15  C13  11 d         -14.240 207.439 113.813  0.00  0.00     0.088 A 
ATOM     16  C14  11 d         -13.813 206.724 112.712  0.00  0.00     0.006 A 
ATOM     17  C15  11 d         -14.946 206.133 112.185  0.00  0.00    -0.027 A 
ATOM     18  C16  11 d         -15.963 206.504 113.064  0.00  0.00     0.150 A 
ATOM     19  O2   11 d         -15.525 207.301 114.014  0.00  0.00    -0.321 OA
ATOM     20  C17  11 d         -15.032 205.113 111.091  0.00  0.00     0.051 C 
ATOM     21  C18  11 d         -12.468 206.695 112.324  0.00  0.00     0.029 A 
ATOM     22  O3   11 d          -9.103 209.694 115.370  0.00  0.00    -0.259 OA
ENDROOT
TORSDOF 0
ENDMDL
MODEL 3
REMARK VINA RESULT:      -9.5      4.721      7.036
REMARK  0 active torsions:
REMARK  status: ('A' for Active; 'I' for Inactive)
ROOT
ATOM      1  C1   11 d         -12.181 205.564 116.545  0.00  0.00     0.299 A 
ATOM      2  C2   11 d         -13.541 205.187 116.402  0.00  0.00     0.051 A 
ATOM      3  C3   11 d         -14.342 204.619 117.528  0.00  0.00    -0.020 A 
ATOM      4  C4   11 d         -15.218 203.533 117.305  0.00  0.00     0.014 A 
ATOM      5  C5   11 d         -15.976 202.997 118.358  0.00  0.00     0.024 A 
ATOM      6  C6   11 d         -15.871 203.538 119.647  0.00  0.00     0.034 A 
ATOM      7 Cl1   11 d         -16.832 202.856 120.980  0.00  0.00    -0.084 Cl
ATOM      8  C7   11 d         -15.008 204.618 119.883  0.00  0.00     0.024 A 
ATOM      9  C8   11 d         -14.251 205.157 118.832  0.00  0.00     0.014 A 
ATOM     10  C9   11 d         -14.135 205.363 115.135  0.00  0.00     0.032 A 
ATOM     11  C10  11 d         -13.390 205.894 114.071  0.00  0.00    -0.000 A 
ATOM     12  C11  11 d         -12.031 206.248 114.320  0.00  0.00     0.092 A 
ATOM     13  O1   11 d         -11.513 206.067 115.521  0.00  0.00    -0.274 OA
ATOM     14  C12  11 d         -11.236 206.790 113.290  0.00  0.00     0.076 A 
ATOM     15  C13  11 d         -11.819 206.958 112.031  0.00  0.00     0.088 A 
ATOM     16  C14  11 d         -13.131 206.606 111.787  0.00  0.00     0.006 A 
ATOM     17  C15  11 d         -13.355 206.890 110.452  0.00  0.00    -0.027 A 
ATOM     18  C16  11 d         -12.154 207.451 110.018  0.00  0.00     0.150 A 
ATOM     19  O2   11 d         -11.245 207.461 110.969  0.00  0.00    -0.321 OA
ATOM     20  C17  11 d         -14.654 206.861 109.707  0.00  0.00     0.051 C 
ATOM     21  C18  11 d         -13.955 206.078 112.788  0.00  0.00     0.029 A 
ATOM     22  O3   11 d         -11.578 205.394 117.634  0.00  0.00    -0.259 OA
ENDROOT
TORSDOF 0
ENDMDL
MODEL 4
REMARK VINA RESULT:      -9.4      3.348      7.511
REMARK  0 active torsions:
REMARK  status: ('A' for Active; 'I' for Inactive)
ROOT
ATOM      1  C1   11 d          -8.184 208.657 112.561  0.00  0.00     0.299 A 
ATOM      2  C2   11 d          -8.519 208.722 113.938  0.00  0.00     0.051 A 
ATOM      3  C3   11 d          -7.546 209.156 114.985  0.00  0.00    -0.020 A 
ATOM      4  C4   11 d          -7.473 208.472 116.220  0.00  0.00     0.014 A 
ATOM      5  C5   11 d          -6.563 208.878 117.209  0.00  0.00     0.024 A 
ATOM      6  C6   11 d          -5.713 209.969 116.979  0.00  0.00     0.034 A 
ATOM      7 Cl1   11 d          -4.560 210.479 118.235  0.00  0.00    -0.084 Cl
ATOM      8  C7   11 d          -5.776 210.658 115.760  0.00  0.00     0.024 A 
ATOM      9  C8   11 d          -6.687 210.257 114.770  0.00  0.00     0.014 A 
ATOM     10  C9   11 d          -9.830 208.352 114.306  0.00  0.00     0.032 A 
ATOM     11  C10  11 d         -10.750 207.942 113.330  0.00  0.00    -0.000 A 
ATOM     12  C11  11 d         -10.316 207.919 111.971  0.00  0.00     0.092 A 
ATOM     13  O1   11 d          -9.080 208.272 111.669  0.00  0.00    -0.274 OA
ATOM     14  C12  11 d         -11.199 207.519 110.948  0.00  0.00     0.076 A 
ATOM     15  C13  11 d         -12.496 207.145 111.310  0.00  0.00     0.088 A 
ATOM     16  C14  11 d         -12.914 207.157 112.625  0.00  0.00     0.006 A 
ATOM     17  C15  11 d         -14.224 206.716 112.608  0.00  0.00    -0.027 A 
ATOM     18  C16  11 d         -14.502 206.529 111.254  0.00  0.00     0.150 A 
ATOM     19  O2   11 d         -13.452 206.768 110.500  0.00  0.00    -0.321 OA
ATOM     20  C17  11 d         -15.208 206.699 113.738  0.00  0.00     0.051 C 
ATOM     21  C18  11 d         -12.069 207.560 113.667  0.00  0.00     0.029 A 
ATOM     22  O3   11 d          -7.022 208.931 112.169  0.00  0.00    -0.259 OA
ENDROOT
TORSDOF 0
ENDMDL
MODEL 5
REMARK VINA RESULT:      -9.3      4.029      8.137
REMARK  0 active torsions:
REMARK  status: ('A' for Active; 'I' for Inactive)
ROOT
ATOM      1  C1   11 d         -11.515 208.159 116.386  0.00  0.00     0.299 A 
ATOM      2  C2   11 d         -10.619 208.285 115.292  0.00  0.00     0.051 A 
ATOM      3  C3   11 d          -9.183 208.658 115.465  0.00  0.00    -0.020 A 
ATOM      4  C4   11 d          -8.572 209.573 114.579  0.00  0.00     0.014 A 
ATOM      5  C5   11 d          -7.222 209.926 114.734  0.00  0.00     0.024 A 
ATOM      6  C6   11 d          -6.464 209.371 115.775  0.00  0.00     0.034 A 
ATOM      7 Cl1   11 d          -4.754 209.821 115.969  0.00  0.00    -0.084 Cl
ATOM      8  C7   11 d          -7.057 208.460 116.660  0.00  0.00     0.024 A 
ATOM      9  C8   11 d          -8.406 208.103 116.506  0.00  0.00     0.014 A 
ATOM     10  C9   11 d         -11.134 208.046 114.000  0.00  0.00     0.032 A 
ATOM     11  C10  11 d         -12.481 207.696 113.828  0.00  0.00    -0.000 A 
ATOM     12  C11  11 d         -13.297 207.588 114.994  0.00  0.00     0.092 A 
ATOM     13  O1   11 d         -12.777 207.821 116.185  0.00  0.00    -0.274 OA
ATOM     14  C12  11 d         -14.657 207.236 114.882  0.00  0.00     0.076 A 
ATOM     15  C13  11 d         -15.172 207.005 113.603  0.00  0.00     0.088 A 
ATOM     16  C14  11 d         -14.386 207.119 112.474  0.00  0.00     0.006 A 
ATOM     17  C15  11 d         -15.219 206.844 111.406  0.00  0.00    -0.027 A 
ATOM     18  C16  11 d         -16.440 206.527 112.000  0.00  0.00     0.150 A 
ATOM     19  O2   11 d         -16.396 206.652 113.309  0.00  0.00    -0.321 OA
ATOM     20  C17  11 d         -14.846 206.659 109.966  0.00  0.00     0.051 C 
ATOM     21  C18  11 d         -13.028 207.454 112.547  0.00  0.00     0.029 A 
ATOM     22  O3   11 d         -11.133 208.400 117.558  0.00  0.00    -0.259 OA
ENDROOT
TORSDOF 0
ENDMDL
MODEL 6
REMARK VINA RESULT:      -9.3      1.873      2.839
REMARK  0 active torsions:
REMARK  status: ('A' for Active; 'I' for Inactive)
ROOT
ATOM      1  C1   11 d         -11.332 208.502 115.036  0.00  0.00     0.299 A 
ATOM      2  C2   11 d         -11.492 207.852 113.784  0.00  0.00     0.051 A 
ATOM      3  C3   11 d         -12.805 207.315 113.317  0.00  0.00    -0.020 A 
ATOM      4  C4   11 d         -12.875 206.058 112.674  0.00  0.00     0.014 A 
ATOM      5  C5   11 d         -14.106 205.550 112.230  0.00  0.00     0.024 A 
ATOM      6  C6   11 d         -15.282 206.287 112.421  0.00  0.00     0.034 A 
ATOM      7 Cl1   11 d         -16.841 205.639 111.857  0.00  0.00    -0.084 Cl
ATOM      8  C7   11 d         -15.228 207.536 113.055  0.00  0.00     0.024 A 
ATOM      9  C8   11 d         -13.999 208.049 113.498  0.00  0.00     0.014 A 
ATOM     10  C9   11 d         -10.347 207.718 112.970  0.00  0.00     0.032 A 
ATOM     11  C10  11 d          -9.110 208.218 113.402  0.00  0.00    -0.000 A 
ATOM     12  C11  11 d          -9.056 208.862 114.673  0.00  0.00     0.092 A 
ATOM     13  O1   11 d         -10.150 208.966 115.405  0.00  0.00    -0.274 OA
ATOM     14  C12  11 d          -7.840 209.386 115.156  0.00  0.00     0.076 A 
ATOM     15  C13  11 d          -6.703 209.249 114.356  0.00  0.00     0.088 A 
ATOM     16  C14  11 d          -6.751 208.617 113.130  0.00  0.00     0.006 A 
ATOM     17  C15  11 d          -5.459 208.649 112.638  0.00  0.00    -0.027 A 
ATOM     18  C16  11 d          -4.747 209.361 113.603  0.00  0.00     0.150 A 
ATOM     19  O2   11 d          -5.502 209.689 114.629  0.00  0.00    -0.321 OA
ATOM     20  C17  11 d          -4.980 208.259 111.273  0.00  0.00     0.051 C 
ATOM     21  C18  11 d          -7.943 208.095 112.611  0.00  0.00     0.029 A 
ATOM     22  O3   11 d         -12.300 208.616 115.828  0.00  0.00    -0.259 OA
ENDROOT
TORSDOF 0
ENDMDL
MODEL 7
REMARK VINA RESULT:      -9.1      4.504      6.201
REMARK  0 active torsions:
REMARK  status: ('A' for Active; 'I' for Inactive)
ROOT
ATOM      1  C1   11 d         -14.744 205.499 114.872  0.00  0.00     0.299 A 
ATOM      2  C2   11 d         -13.815 205.819 115.895  0.00  0.00     0.051 A 
ATOM      3  C3   11 d         -14.074 205.535 117.339  0.00  0.00    -0.020 A 
ATOM      4  C4   11 d         -13.734 206.487 118.327  0.00  0.00     0.014 A 
ATOM      5  C5   11 d         -13.972 206.224 119.685  0.00  0.00     0.024 A 
ATOM      6  C6   11 d         -14.554 205.009 120.075  0.00  0.00     0.034 A 
ATOM      7 Cl1   11 d         -14.856 204.680 121.798  0.00  0.00    -0.084 Cl
ATOM      8  C7   11 d         -14.894 204.055 119.106  0.00  0.00     0.024 A 
ATOM      9  C8   11 d         -14.654 204.313 117.748  0.00  0.00     0.014 A 
ATOM     10  C9   11 d         -12.606 206.435 115.506  0.00  0.00     0.032 A 
ATOM     11  C10  11 d         -12.354 206.706 114.153  0.00  0.00    -0.000 A 
ATOM     12  C11  11 d         -13.350 206.337 113.201  0.00  0.00     0.092 A 
ATOM     13  O1   11 d         -14.469 205.765 113.607  0.00  0.00    -0.274 OA
ATOM     14  C12  11 d         -13.150 206.583 111.828  0.00  0.00     0.076 A 
ATOM     15  C13  11 d         -11.957 207.199 111.439  0.00  0.00     0.088 A 
ATOM     16  C14  11 d         -10.997 207.566 112.360  0.00  0.00     0.006 A 
ATOM     17  C15  11 d          -9.980 208.154 111.631  0.00  0.00    -0.027 A 
ATOM     18  C16  11 d         -10.401 208.036 110.306  0.00  0.00     0.150 A 
ATOM     19  O2   11 d         -11.591 207.485 110.216  0.00  0.00    -0.321 OA
ATOM     20  C17  11 d          -8.624 208.575 112.109  0.00  0.00     0.051 C 
ATOM     21  C18  11 d         -11.155 207.326 113.731  0.00  0.00     0.029 A 
ATOM     22  O3   11 d         -15.858 204.989 115.154  0.00  0.00    -0.259 OA
ENDROOT
TORSDOF 0
ENDMDL
MODEL 8
REMARK VINA RESULT:      -8.7      5.577      7.806
REMARK  0 active torsions:
REMARK  status: ('A' for Active; 'I' for Inactive)
ROOT
ATOM      1  C1   11 d         -12.232 207.594 116.216  0.00  0.00     0.299 A 
ATOM      2  C2   11 d         -12.683 206.721 115.193  0.00  0.00     0.051 A 
ATOM      3  C3   11 d         -12.341 206.923 113.752  0.00  0.00    -0.020 A 
ATOM      4  C4   11 d         -13.321 206.732 112.752  0.00  0.00     0.014 A 
ATOM      5  C5   11 d         -13.004 206.916 111.397  0.00  0.00     0.024 A 
ATOM      6  C6   11 d         -11.707 207.293 111.022  0.00  0.00     0.034 A 
ATOM      7 Cl1   11 d         -11.311 207.527 109.303  0.00  0.00    -0.084 Cl
ATOM      8  C7   11 d         -10.725 207.483 112.003  0.00  0.00     0.024 A 
ATOM      9  C8   11 d         -11.037 207.297 113.358  0.00  0.00     0.014 A 
ATOM     10  C9   11 d         -13.489 205.629 115.578  0.00  0.00     0.032 A 
ATOM     11  C10  11 d         -13.816 205.433 116.928  0.00  0.00    -0.000 A 
ATOM     12  C11  11 d         -13.306 206.364 117.881  0.00  0.00     0.092 A 
ATOM     13  O1   11 d         -12.556 207.373 117.478  0.00  0.00    -0.274 OA
ATOM     14  C12  11 d         -13.599 206.214 119.251  0.00  0.00     0.076 A 
ATOM     15  C13  11 d         -14.404 205.138 119.636  0.00  0.00     0.088 A 
ATOM     16  C14  11 d         -14.906 204.242 118.714  0.00  0.00     0.006 A 
ATOM     17  C15  11 d         -15.660 203.338 119.439  0.00  0.00    -0.027 A 
ATOM     18  C16  11 d         -15.494 203.743 120.763  0.00  0.00     0.150 A 
ATOM     19  O2   11 d         -14.761 204.831 120.856  0.00  0.00    -0.321 OA
ATOM     20  C17  11 d         -16.286 202.064 118.960  0.00  0.00     0.051 C 
ATOM     21  C18  11 d         -14.626 204.351 117.346  0.00  0.00     0.029 A 
ATOM     22  O3   11 d         -11.547 208.610 115.937  0.00  0.00    -0.259 OA
ENDROOT
TORSDOF 0
ENDMDL
MODEL 9
REMARK VINA RESULT:      -8.4      4.338      5.299
REMARK  0 active torsions:
REMARK  status: ('A' for Active; 'I' for Inactive)
ROOT
ATOM      1  C1   11 d         -13.915 205.609 115.938  0.00  0.00     0.299 A 
ATOM      2  C2   11 d         -13.204 206.381 114.983  0.00  0.00     0.051 A 
ATOM      3  C3   11 d         -13.698 206.596 113.590  0.00  0.00    -0.020 A 
ATOM      4  C4   11 d         -12.804 206.535 112.497  0.00  0.00     0.014 A 
ATOM      5  C5   11 d         -13.262 206.740 111.186  0.00  0.00     0.024 A 
ATOM      6  C6   11 d         -14.617 207.008 110.948  0.00  0.00     0.034 A 
ATOM      7 Cl1   11 d         -15.195 207.265 109.284  0.00  0.00    -0.084 Cl
ATOM      8  C7   11 d         -15.515 207.074 112.022  0.00  0.00     0.024 A 
ATOM      9  C8   11 d         -15.060 206.873 113.334  0.00  0.00     0.014 A 
ATOM     10  C9   11 d         -11.980 206.953 115.392  0.00  0.00     0.032 A 
ATOM     11  C10  11 d         -11.508 206.755 116.697  0.00  0.00    -0.000 A 
ATOM     12  C11  11 d         -12.303 205.969 117.583  0.00  0.00     0.092 A 
ATOM     13  O1   11 d         -13.441 205.450 117.161  0.00  0.00    -0.274 OA
ATOM     14  C12  11 d         -11.879 205.740 118.908  0.00  0.00     0.076 A 
ATOM     15  C13  11 d         -10.664 206.299 119.314  0.00  0.00     0.088 A 
ATOM     16  C14  11 d          -9.889 207.052 118.455  0.00  0.00     0.006 A 
ATOM     17  C15  11 d          -8.771 207.419 119.180  0.00  0.00    -0.027 A 
ATOM     18  C16  11 d          -9.003 206.894 120.451  0.00  0.00     0.150 A 
ATOM     19  O2   11 d         -10.126 206.211 120.503  0.00  0.00    -0.321 OA
ATOM     20  C17  11 d          -7.690 208.381 118.788  0.00  0.00     0.051 C 
ATOM     21  C18  11 d         -10.284 207.312 117.136  0.00  0.00     0.029 A 
ATOM     22  O3   11 d         -14.989 205.035 115.627  0.00  0.00    -0.259 OA
ENDROOT
TORSDOF 0
ENDMDL
MODEL 10
REMARK VINA RESULT:      -8.3      4.808      7.833
REMARK  0 active torsions:
REMARK  status: ('A' for Active; 'I' for Inactive)
ROOT
ATOM      1  C1   11 d         -13.358 206.081 116.651  0.00  0.00     0.299 A 
ATOM      2  C2   11 d         -12.052 206.616 116.504  0.00  0.00     0.051 A 
ATOM      3  C3   11 d         -11.136 206.836 117.664  0.00  0.00    -0.020 A 
ATOM      4  C4   11 d         -10.360 208.014 117.747  0.00  0.00     0.014 A 
ATOM      5  C5   11 d          -9.494 208.225 118.832  0.00  0.00     0.024 A 
ATOM      6  C6   11 d          -9.393 207.264 119.848  0.00  0.00     0.034 A 
ATOM      7 Cl1   11 d          -8.296 207.536 121.223  0.00  0.00    -0.084 Cl
ATOM      8  C7   11 d         -10.155 206.090 119.778  0.00  0.00     0.024 A 
ATOM      9  C8   11 d         -11.019 205.875 118.693  0.00  0.00     0.014 A 
ATOM     10  C9   11 d         -11.629 206.948 115.200  0.00  0.00     0.032 A 
ATOM     11  C10  11 d         -12.483 206.746 114.106  0.00  0.00    -0.000 A 
ATOM     12  C11  11 d         -13.774 206.195 114.359  0.00  0.00     0.092 A 
ATOM     13  O1   11 d         -14.132 205.899 115.595  0.00  0.00    -0.274 OA
ATOM     14  C12  11 d         -14.673 205.967 113.297  0.00  0.00     0.076 A 
ATOM     15  C13  11 d         -14.259 206.302 112.005  0.00  0.00     0.088 A 
ATOM     16  C14  11 d         -13.014 206.845 111.760  0.00  0.00     0.006 A 
ATOM     17  C15  11 d         -12.960 207.063 110.396  0.00  0.00    -0.027 A 
ATOM     18  C16  11 d         -14.177 206.570 109.925  0.00  0.00     0.150 A 
ATOM     19  O2   11 d         -14.946 206.143 110.903  0.00  0.00    -0.321 OA
ATOM     20  C17  11 d         -11.778 207.475 109.572  0.00  0.00     0.051 C 
ATOM     21  C18  11 d         -12.090 207.073 112.787  0.00  0.00     0.029 A 
ATOM     22  O3   11 d         -13.814 205.804 117.789  0.00  0.00    -0.259 OA
ENDROOT
TORSDOF 0
ENDMDL
