MODEL 1
REMARK VINA RESULT:      -6.3      0.000      0.000
REMARK  4 active torsions:
REMARK  status: ('A' for Active; 'I' for Inactive)
REMARK    1  A    between atoms: C1_1  and  C21_29 
REMARK    2  A    between atoms: C10_14  and  C11_15 
REMARK    3  A    between atoms: C11_15  and  O2_17 
REMARK    4  A    between atoms: O2_17  and  C12_18 
ROOT
ATOM      1  C1   11 d          -2.635 207.018 118.100  0.00  0.00     0.073 A 
ATOM      2  C2   11 d          -3.114 207.643 117.002  0.00  0.00     0.033 A 
ATOM      3  N1   11 d          -4.434 208.067 117.142  0.00  0.00    -0.302 N 
ATOM      4  C3   11 d          -5.033 207.835 118.409  0.00  0.00     0.247 A 
ATOM      5  N2   11 d          -5.499 209.006 119.088  0.00  0.00    -0.218 N 
ATOM      6  C4   11 d          -4.689 210.019 119.638  0.00  0.00     0.057 A 
ATOM      7  C5   11 d          -5.159 210.740 120.764  0.00  0.00     0.033 A 
ATOM      8  C6   11 d          -4.381 211.737 121.370  0.00  0.00     0.026 A 
ATOM      9  C7   11 d          -3.109 212.034 120.869  0.00  0.00     0.034 A 
ATOM     10 Cl1   11 d          -2.116 213.293 121.642  0.00  0.00    -0.084 Cl
ATOM     11  C8   11 d          -2.621 211.339 119.756  0.00  0.00     0.026 A 
ATOM     12  C9   11 d          -3.403 210.347 119.146  0.00  0.00     0.033 A 
ATOM     13  N3   11 d          -6.812 209.135 119.199  0.00  0.00    -0.155 NA
ATOM     14  C10  11 d          -7.465 208.121 118.718  0.00  0.00     0.193 C 
ATOM     15  S1   11 d          -6.477 206.728 118.188  0.00  0.00    -0.034 SA
ATOM     16  S2   11 d          -3.840 206.902 119.439  0.00  0.00    -0.056 SA
ATOM     17  C14  11 d          -5.163 208.674 116.119  0.00  0.00     0.038 A 
ATOM     18  C15  11 d          -5.429 210.058 116.121  0.00  0.00     0.030 A 
ATOM     19  C16  11 d          -6.240 210.626 115.127  0.00  0.00     0.002 A 
ATOM     20  C17  11 d          -6.786 209.819 114.118  0.00  0.00     0.000 A 
ATOM     21  C18  11 d          -6.517 208.443 114.099  0.00  0.00     0.002 A 
ATOM     22  C19  11 d          -5.710 207.873 115.096  0.00  0.00     0.030 A 
ATOM     23  C20  11 d          -2.343 207.765 115.703  0.00  0.00     0.070 C 
ENDROOT
BRANCH  14  24
ATOM     24  C11  11 d          -8.940 208.148 118.600  0.00  0.00     0.320 C 
ATOM     25  O1   11 d          -9.621 208.810 119.428  0.00  0.00    -0.257 OA
BRANCH  24  26
ATOM     26  O2   11 d          -9.564 207.427 117.529  0.00  0.00    -0.316 OA
BRANCH  26  27
ATOM     27  C12  11 d         -10.621 208.152 116.855  0.00  0.00     0.175 C 
ATOM     28  C13  11 d         -10.032 208.820 115.623  0.00  0.00     0.034 C 
ENDBRANCH  26  27
ENDBRANCH  24  26
ENDBRANCH  14  24
BRANCH   1  29
ATOM     29  C21  11 d          -1.270 206.452 118.318  0.00  0.00     0.164 C 
ATOM     30  O3   11 d          -1.102 205.218 118.151  0.00  0.00    -0.292 OA
ATOM     31  C22  11 d          -0.147 207.232 118.938  0.00  0.00     0.097 C 
ENDBRANCH   1  29
TORSDOF 4
ENDMDL
MODEL 2
REMARK VINA RESULT:      -6.3      3.462      5.788
REMARK  4 active torsions:
REMARK  status: ('A' for Active; 'I' for Inactive)
REMARK    1  A    between atoms: C1_1  and  C21_29 
REMARK    2  A    between atoms: C10_14  and  C11_15 
REMARK    3  A    between atoms: C11_15  and  O2_17 
REMARK    4  A    between atoms: O2_17  and  C12_18 
ROOT
ATOM      1  C1   11 d          -5.194 205.749 119.697  0.00  0.00     0.073 A 
ATOM      2  C2   11 d          -5.162 206.987 120.238  0.00  0.00     0.033 A 
ATOM      3  N1   11 d          -5.466 207.994 119.324  0.00  0.00    -0.302 N 
ATOM      4  C3   11 d          -5.813 207.565 118.015  0.00  0.00     0.247 A 
ATOM      5  N2   11 d          -7.112 207.964 117.566  0.00  0.00    -0.218 N 
ATOM      6  C4   11 d          -8.340 207.488 118.065  0.00  0.00     0.057 A 
ATOM      7  C5   11 d          -9.463 207.441 117.201  0.00  0.00     0.033 A 
ATOM      8  C6   11 d         -10.701 206.947 117.637  0.00  0.00     0.026 A 
ATOM      9  C7   11 d         -10.847 206.481 118.948  0.00  0.00     0.034 A 
ATOM     10 Cl1   11 d         -12.415 205.845 119.500  0.00  0.00    -0.084 Cl
ATOM     11  C8   11 d          -9.755 206.518 119.824  0.00  0.00     0.026 A 
ATOM     12  C9   11 d          -8.519 207.019 119.389  0.00  0.00     0.033 A 
ATOM     13  N3   11 d          -7.146 208.863 116.595  0.00  0.00    -0.155 NA
ATOM     14  C10  11 d          -5.966 209.189 116.164  0.00  0.00     0.193 C 
ATOM     15  S1   11 d          -4.597 208.249 116.827  0.00  0.00    -0.034 SA
ATOM     16  S2   11 d          -5.615 205.746 117.943  0.00  0.00    -0.056 SA
ATOM     17  C14  11 d          -5.429 209.354 119.634  0.00  0.00     0.038 A 
ATOM     18  C15  11 d          -6.608 210.101 119.824  0.00  0.00     0.030 A 
ATOM     19  C16  11 d          -6.544 211.485 120.044  0.00  0.00     0.002 A 
ATOM     20  C17  11 d          -5.301 212.134 120.086  0.00  0.00     0.000 A 
ATOM     21  C18  11 d          -4.121 211.398 119.912  0.00  0.00     0.002 A 
ATOM     22  C19  11 d          -4.185 210.015 119.686  0.00  0.00     0.030 A 
ATOM     23  C20  11 d          -4.721 207.270 121.660  0.00  0.00     0.070 C 
ENDROOT
BRANCH  14  24
ATOM     24  C11  11 d          -5.784 210.295 115.197  0.00  0.00     0.320 C 
ATOM     25  O1   11 d          -6.134 211.465 115.511  0.00  0.00    -0.257 OA
BRANCH  24  26
ATOM     26  O2   11 d          -5.193 210.013 113.921  0.00  0.00    -0.316 OA
BRANCH  26  27
ATOM     27  C12  11 d          -5.676 208.801 113.292  0.00  0.00     0.175 C 
ATOM     28  C13  11 d          -7.069 209.067 112.746  0.00  0.00     0.034 C 
ENDBRANCH  26  27
ENDBRANCH  24  26
ENDBRANCH  14  24
BRANCH   1  29
ATOM     29  C21  11 d          -4.943 204.440 120.373  0.00  0.00     0.164 C 
ATOM     30  O3   11 d          -3.755 204.049 120.493  0.00  0.00    -0.292 OA
ATOM     31  C22  11 d          -6.036 203.469 120.713  0.00  0.00     0.097 C 
ENDBRANCH   1  29
TORSDOF 4
ENDMDL
MODEL 3
REMARK VINA RESULT:      -6.3      2.643      5.060
REMARK  4 active torsions:
REMARK  status: ('A' for Active; 'I' for Inactive)
REMARK    1  A    between atoms: C1_1  and  C21_29 
REMARK    2  A    between atoms: C10_14  and  C11_15 
REMARK    3  A    between atoms: C11_15  and  O2_17 
REMARK    4  A    between atoms: O2_17  and  C12_18 
ROOT
ATOM      1  C1   11 d          -8.109 207.089 120.272  0.00  0.00     0.073 A 
ATOM      2  C2   11 d          -6.874 206.577 120.080  0.00  0.00     0.033 A 
ATOM      3  N1   11 d          -6.158 207.227 119.076  0.00  0.00    -0.302 N 
ATOM      4  C3   11 d          -6.804 208.338 118.470  0.00  0.00     0.247 A 
ATOM      5  N2   11 d          -6.103 209.582 118.573  0.00  0.00    -0.218 N 
ATOM      6  C4   11 d          -5.902 210.322 119.755  0.00  0.00     0.057 A 
ATOM      7  C5   11 d          -5.785 211.732 119.672  0.00  0.00     0.033 A 
ATOM      8  C6   11 d          -5.616 212.519 120.821  0.00  0.00     0.026 A 
ATOM      9  C7   11 d          -5.567 211.917 122.083  0.00  0.00     0.034 A 
ATOM     10 Cl1   11 d          -5.361 212.916 123.542  0.00  0.00    -0.084 Cl
ATOM     11  C8   11 d          -5.677 210.526 122.193  0.00  0.00     0.026 A 
ATOM     12  C9   11 d          -5.839 209.738 121.043  0.00  0.00     0.033 A 
ATOM     13  N3   11 d          -5.602 210.067 117.448  0.00  0.00    -0.155 NA
ATOM     14  C10  11 d          -5.894 209.345 116.409  0.00  0.00     0.193 C 
ATOM     15  S1   11 d          -7.029 207.991 116.685  0.00  0.00    -0.034 SA
ATOM     16  S2   11 d          -8.490 208.467 119.172  0.00  0.00    -0.056 SA
ATOM     17  C14  11 d          -4.889 206.832 118.653  0.00  0.00     0.038 A 
ATOM     18  C15  11 d          -3.733 207.554 119.010  0.00  0.00     0.030 A 
ATOM     19  C16  11 d          -2.480 207.188 118.496  0.00  0.00     0.002 A 
ATOM     20  C17  11 d          -2.369 206.091 117.628  0.00  0.00     0.000 A 
ATOM     21  C18  11 d          -3.511 205.357 117.278  0.00  0.00     0.002 A 
ATOM     22  C19  11 d          -4.765 205.727 117.786  0.00  0.00     0.030 A 
ATOM     23  C20  11 d          -6.356 205.343 120.793  0.00  0.00     0.070 C 
ENDROOT
BRANCH  14  24
ATOM     24  C11  11 d          -5.292 209.629 115.087  0.00  0.00     0.320 C 
ATOM     25  O1   11 d          -4.039 209.694 114.971  0.00  0.00    -0.257 OA
BRANCH  24  26
ATOM     26  O2   11 d          -6.155 209.808 113.956  0.00  0.00    -0.316 OA
BRANCH  26  27
ATOM     27  C12  11 d          -6.126 208.719 113.001  0.00  0.00     0.175 C 
ATOM     28  C13  11 d          -7.458 208.689 112.270  0.00  0.00     0.034 C 
ENDBRANCH  26  27
ENDBRANCH  24  26
ENDBRANCH  14  24
BRANCH   1  29
ATOM     29  C21  11 d          -9.140 206.663 121.265  0.00  0.00     0.164 C 
ATOM     30  O3   11 d          -9.198 207.269 122.364  0.00  0.00    -0.292 OA
ATOM     31  C22  11 d          -9.958 205.412 121.115  0.00  0.00     0.097 C 
ENDBRANCH   1  29
TORSDOF 4
ENDMDL
MODEL 4
REMARK VINA RESULT:      -6.0     11.283     13.778
REMARK  4 active torsions:
REMARK  status: ('A' for Active; 'I' for Inactive)
REMARK    1  A    between atoms: C1_1  and  C21_29 
REMARK    2  A    between atoms: C10_14  and  C11_15 
REMARK    3  A    between atoms: C11_15  and  O2_17 
REMARK    4  A    between atoms: O2_17  and  C12_18 
ROOT
ATOM      1  C1   11 d         -16.049 206.833 125.164  0.00  0.00     0.073 A 
ATOM      2  C2   11 d         -17.137 206.320 124.548  0.00  0.00     0.033 A 
ATOM      3  N1   11 d         -16.837 205.665 123.356  0.00  0.00    -0.302 N 
ATOM      4  C3   11 d         -15.460 205.589 123.015  0.00  0.00     0.247 A 
ATOM      5  N2   11 d         -14.942 204.263 122.861  0.00  0.00    -0.218 N 
ATOM      6  C4   11 d         -14.755 203.325 123.896  0.00  0.00     0.057 A 
ATOM      7  C5   11 d         -13.718 202.365 123.775  0.00  0.00     0.033 A 
ATOM      8  C6   11 d         -13.469 201.428 124.788  0.00  0.00     0.026 A 
ATOM      9  C7   11 d         -14.244 201.431 125.952  0.00  0.00     0.034 A 
ATOM     10 Cl1   11 d         -13.923 200.249 127.244  0.00  0.00    -0.084 Cl
ATOM     11  C8   11 d         -15.276 202.367 126.097  0.00  0.00     0.026 A 
ATOM     12  C9   11 d         -15.530 203.299 125.080  0.00  0.00     0.033 A 
ATOM     13  N3   11 d         -14.615 203.901 121.631  0.00  0.00    -0.155 NA
ATOM     14  C10  11 d         -14.765 204.855 120.764  0.00  0.00     0.193 C 
ATOM     15  S1   11 d         -15.195 206.460 121.425  0.00  0.00    -0.034 SA
ATOM     16  S2   11 d         -14.512 206.531 124.267  0.00  0.00    -0.056 SA
ATOM     17  C14  11 d         -17.804 205.116 122.512  0.00  0.00     0.038 A 
ATOM     18  C15  11 d         -18.015 203.725 122.437  0.00  0.00     0.030 A 
ATOM     19  C16  11 d         -18.930 203.195 121.515  0.00  0.00     0.002 A 
ATOM     20  C17  11 d         -19.648 204.050 120.665  0.00  0.00     0.000 A 
ATOM     21  C18  11 d         -19.455 205.437 120.742  0.00  0.00     0.002 A 
ATOM     22  C19  11 d         -18.536 205.967 121.659  0.00  0.00     0.030 A 
ATOM     23  C20  11 d         -18.556 206.538 125.035  0.00  0.00     0.070 C 
ENDROOT
BRANCH  14  24
ATOM     24  C11  11 d         -14.609 204.602 119.314  0.00  0.00     0.320 C 
ATOM     25  O1   11 d         -14.097 205.486 118.576  0.00  0.00    -0.257 OA
BRANCH  24  26
ATOM     26  O2   11 d         -15.032 203.340 118.780  0.00  0.00    -0.316 OA
BRANCH  26  27
ATOM     27  C12  11 d         -16.467 203.144 118.767  0.00  0.00     0.175 C 
ATOM     28  C13  11 d         -16.821 202.282 117.567  0.00  0.00     0.034 C 
ENDBRANCH  26  27
ENDBRANCH  24  26
ENDBRANCH  14  24
BRANCH   1  29
ATOM     29  C21  11 d         -15.985 207.577 126.458  0.00  0.00     0.164 C 
ATOM     30  O3   11 d         -16.009 208.833 126.426  0.00  0.00    -0.292 OA
ATOM     31  C22  11 d         -15.670 206.917 127.770  0.00  0.00     0.097 C 
ENDBRANCH   1  29
TORSDOF 4
ENDMDL
MODEL 5
REMARK VINA RESULT:      -5.8     12.005     13.889
REMARK  4 active torsions:
REMARK  status: ('A' for Active; 'I' for Inactive)
REMARK    1  A    between atoms: C1_1  and  C21_29 
REMARK    2  A    between atoms: C10_14  and  C11_15 
REMARK    3  A    between atoms: C11_15  and  O2_17 
REMARK    4  A    between atoms: O2_17  and  C12_18 
ROOT
ATOM      1  C1   11 d         -14.358 207.067 125.164  0.00  0.00     0.073 A 
ATOM      2  C2   11 d         -15.621 206.699 125.471  0.00  0.00     0.033 A 
ATOM      3  N1   11 d         -16.131 205.719 124.623  0.00  0.00    -0.302 N 
ATOM      4  C3   11 d         -15.240 205.229 123.630  0.00  0.00     0.247 A 
ATOM      5  N2   11 d         -14.984 203.822 123.680  0.00  0.00    -0.218 N 
ATOM      6  C4   11 d         -14.259 203.150 124.685  0.00  0.00     0.057 A 
ATOM      7  C5   11 d         -13.551 201.968 124.349  0.00  0.00     0.033 A 
ATOM      8  C6   11 d         -12.789 201.278 125.303  0.00  0.00     0.026 A 
ATOM      9  C7   11 d         -12.708 201.755 126.615  0.00  0.00     0.034 A 
ATOM     10 Cl1   11 d         -11.734 200.885 127.824  0.00  0.00    -0.084 Cl
ATOM     11  C8   11 d         -13.399 202.919 126.975  0.00  0.00     0.026 A 
ATOM     12  C9   11 d         -14.168 203.605 126.022  0.00  0.00     0.033 A 
ATOM     13  N3   11 d         -15.479 203.099 122.688  0.00  0.00    -0.155 NA
ATOM     14  C10  11 d         -16.074 203.818 121.785  0.00  0.00     0.193 C 
ATOM     15  S1   11 d         -15.941 205.591 121.976  0.00  0.00    -0.034 SA
ATOM     16  S2   11 d         -13.686 206.192 123.737  0.00  0.00    -0.056 SA
ATOM     17  C14  11 d         -17.435 205.230 124.702  0.00  0.00     0.038 A 
ATOM     18  C15  11 d         -17.717 203.958 125.237  0.00  0.00     0.030 A 
ATOM     19  C16  11 d         -19.027 203.456 125.221  0.00  0.00     0.002 A 
ATOM     20  C17  11 d         -20.069 204.223 124.679  0.00  0.00     0.000 A 
ATOM     21  C18  11 d         -19.801 205.496 124.157  0.00  0.00     0.002 A 
ATOM     22  C19  11 d         -18.490 205.997 124.166  0.00  0.00     0.030 A 
ATOM     23  C20  11 d         -16.451 207.367 126.550  0.00  0.00     0.070 C 
ENDROOT
BRANCH  14  24
ATOM     24  C11  11 d         -16.833 203.186 120.683  0.00  0.00     0.320 C 
ATOM     25  O1   11 d         -16.669 201.962 120.432  0.00  0.00    -0.257 OA
BRANCH  24  26
ATOM     26  O2   11 d         -17.757 203.983 119.930  0.00  0.00    -0.316 OA
BRANCH  26  27
ATOM     27  C12  11 d         -19.138 203.562 120.037  0.00  0.00     0.175 C 
ATOM     28  C13  11 d         -19.960 204.741 120.532  0.00  0.00     0.034 C 
ENDBRANCH  26  27
ENDBRANCH  24  26
ENDBRANCH  14  24
BRANCH   1  29
ATOM     29  C21  11 d         -13.494 208.069 125.858  0.00  0.00     0.164 C 
ATOM     30  O3   11 d         -13.664 209.286 125.600  0.00  0.00    -0.292 OA
ATOM     31  C22  11 d         -12.290 207.690 126.673  0.00  0.00     0.097 C 
ENDBRANCH   1  29
TORSDOF 4
ENDMDL
MODEL 6
REMARK VINA RESULT:      -5.7      3.128      5.143
REMARK  4 active torsions:
REMARK  status: ('A' for Active; 'I' for Inactive)
REMARK    1  A    between atoms: C1_1  and  C21_29 
REMARK    2  A    between atoms: C10_14  and  C11_15 
REMARK    3  A    between atoms: C11_15  and  O2_17 
REMARK    4  A    between atoms: O2_17  and  C12_18 
ROOT
ATOM      1  C1   11 d          -4.449 210.027 120.197  0.00  0.00     0.073 A 
ATOM      2  C2   11 d          -4.404 208.684 120.339  0.00  0.00     0.033 A 
ATOM      3  N1   11 d          -5.565 208.046 119.905  0.00  0.00    -0.302 N 
ATOM      4  C3   11 d          -6.562 208.884 119.340  0.00  0.00     0.247 A 
ATOM      5  N2   11 d          -6.928 208.574 117.991  0.00  0.00    -0.218 N 
ATOM      6  C4   11 d          -6.114 208.748 116.854  0.00  0.00     0.057 A 
ATOM      7  C5   11 d          -6.727 209.014 115.603  0.00  0.00     0.033 A 
ATOM      8  C6   11 d          -5.963 209.227 114.446  0.00  0.00     0.026 A 
ATOM      9  C7   11 d          -4.566 209.186 114.511  0.00  0.00     0.034 A 
ATOM     10 Cl1   11 d          -3.595 209.464 113.046  0.00  0.00    -0.084 Cl
ATOM     11  C8   11 d          -3.935 208.922 115.733  0.00  0.00     0.026 A 
ATOM     12  C9   11 d          -4.700 208.703 116.889  0.00  0.00     0.033 A 
ATOM     13  N3   11 d          -8.142 208.078 117.812  0.00  0.00    -0.155 NA
ATOM     14  C10  11 d          -8.832 208.016 118.910  0.00  0.00     0.193 C 
ATOM     15  S1   11 d          -8.084 208.760 120.354  0.00  0.00    -0.034 SA
ATOM     16  S2   11 d          -6.000 210.620 119.492  0.00  0.00    -0.056 SA
ATOM     17  C14  11 d          -5.778 206.672 120.015  0.00  0.00     0.038 A 
ATOM     18  C15  11 d          -5.699 205.820 118.896  0.00  0.00     0.030 A 
ATOM     19  C16  11 d          -6.007 204.457 119.019  0.00  0.00     0.002 A 
ATOM     20  C17  11 d          -6.387 203.930 120.262  0.00  0.00     0.000 A 
ATOM     21  C18  11 d          -6.455 204.767 121.385  0.00  0.00     0.002 A 
ATOM     22  C19  11 d          -6.153 206.131 121.262  0.00  0.00     0.030 A 
ATOM     23  C20  11 d          -3.263 207.949 121.013  0.00  0.00     0.070 C 
ENDROOT
BRANCH  14  24
ATOM     24  C11  11 d         -10.149 207.341 118.948  0.00  0.00     0.320 C 
ATOM     25  O1   11 d         -10.228 206.144 119.334  0.00  0.00    -0.257 OA
BRANCH  24  26
ATOM     26  O2   11 d         -11.317 208.076 118.557  0.00  0.00    -0.316 OA
BRANCH  26  27
ATOM     27  C12  11 d         -12.210 207.357 117.672  0.00  0.00     0.175 C 
ATOM     28  C13  11 d         -13.543 207.178 118.380  0.00  0.00     0.034 C 
ENDBRANCH  26  27
ENDBRANCH  24  26
ENDBRANCH  14  24
BRANCH   1  29
ATOM     29  C21  11 d          -3.390 211.026 120.535  0.00  0.00     0.164 C 
ATOM     30  O3   11 d          -3.627 211.864 121.440  0.00  0.00    -0.292 OA
ATOM     31  C22  11 d          -2.155 211.226 119.705  0.00  0.00     0.097 C 
ENDBRANCH   1  29
TORSDOF 4
ENDMDL
MODEL 7
REMARK VINA RESULT:      -5.7      3.004      4.648
REMARK  4 active torsions:
REMARK  status: ('A' for Active; 'I' for Inactive)
REMARK    1  A    between atoms: C1_1  and  C21_29 
REMARK    2  A    between atoms: C10_14  and  C11_15 
REMARK    3  A    between atoms: C11_15  and  O2_17 
REMARK    4  A    between atoms: O2_17  and  C12_18 
ROOT
ATOM      1  C1   11 d          -3.181 207.819 116.851  0.00  0.00     0.073 A 
ATOM      2  C2   11 d          -3.464 208.703 117.832  0.00  0.00     0.033 A 
ATOM      3  N1   11 d          -4.803 208.687 118.219  0.00  0.00    -0.302 N 
ATOM      4  C3   11 d          -5.625 207.723 117.576  0.00  0.00     0.247 A 
ATOM      5  N2   11 d          -6.263 206.785 118.450  0.00  0.00    -0.218 N 
ATOM      6  C4   11 d          -5.618 205.770 119.184  0.00  0.00     0.057 A 
ATOM      7  C5   11 d          -6.328 204.578 119.480  0.00  0.00     0.033 A 
ATOM      8  C6   11 d          -5.724 203.524 120.180  0.00  0.00     0.026 A 
ATOM      9  C7   11 d          -4.393 203.630 120.597  0.00  0.00     0.034 A 
ATOM     10 Cl1   11 d          -3.622 202.289 121.477  0.00  0.00    -0.084 Cl
ATOM     11  C8   11 d          -3.670 204.797 120.320  0.00  0.00     0.026 A 
ATOM     12  C9   11 d          -4.276 205.854 119.626  0.00  0.00     0.033 A 
ATOM     13  N3   11 d          -7.577 206.895 118.569  0.00  0.00    -0.155 NA
ATOM     14  C10  11 d          -8.080 207.817 117.807  0.00  0.00     0.193 C 
ATOM     15  S1   11 d          -6.951 208.594 116.658  0.00  0.00    -0.034 SA
ATOM     16  S2   11 d          -4.616 206.869 116.309  0.00  0.00    -0.056 SA
ATOM     17  C14  11 d          -5.344 209.557 119.165  0.00  0.00     0.038 A 
ATOM     18  C15  11 d          -5.663 209.126 120.468  0.00  0.00     0.030 A 
ATOM     19  C16  11 d          -6.290 209.999 121.370  0.00  0.00     0.002 A 
ATOM     20  C17  11 d          -6.596 211.312 120.982  0.00  0.00     0.000 A 
ATOM     21  C18  11 d          -6.270 211.754 119.692  0.00  0.00     0.002 A 
ATOM     22  C19  11 d          -5.649 210.881 118.788  0.00  0.00     0.030 A 
ATOM     23  C20  11 d          -2.461 209.701 118.378  0.00  0.00     0.070 C 
ENDROOT
BRANCH  14  24
ATOM     24  C11  11 d          -9.505 208.205 117.915  0.00  0.00     0.320 C 
ATOM     25  O1   11 d          -9.931 208.730 118.978  0.00  0.00    -0.257 OA
BRANCH  24  26
ATOM     26  O2   11 d         -10.370 207.988 116.793  0.00  0.00    -0.316 OA
BRANCH  26  27
ATOM     27  C12  11 d         -11.704 207.545 117.141  0.00  0.00     0.175 C 
ATOM     28  C13  11 d         -11.925 206.170 116.533  0.00  0.00     0.034 C 
ENDBRANCH  26  27
ENDBRANCH  24  26
ENDBRANCH  14  24
BRANCH   1  29
ATOM     29  C21  11 d          -1.861 207.549 116.205  0.00  0.00     0.164 C 
ATOM     30  O3   11 d          -1.559 208.194 115.170  0.00  0.00    -0.292 OA
ATOM     31  C22  11 d          -0.978 206.397 116.592  0.00  0.00     0.097 C 
ENDBRANCH   1  29
TORSDOF 4
ENDMDL
MODEL 8
REMARK VINA RESULT:      -5.7      3.188      5.558
REMARK  4 active torsions:
REMARK  status: ('A' for Active; 'I' for Inactive)
REMARK    1  A    between atoms: C1_1  and  C21_29 
REMARK    2  A    between atoms: C10_14  and  C11_15 
REMARK    3  A    between atoms: C11_15  and  O2_17 
REMARK    4  A    between atoms: O2_17  and  C12_18 
ROOT
ATOM      1  C1   11 d          -4.573 210.068 120.710  0.00  0.00     0.073 A 
ATOM      2  C2   11 d          -5.353 210.364 119.648  0.00  0.00     0.033 A 
ATOM      3  N1   11 d          -5.238 209.445 118.607  0.00  0.00    -0.302 N 
ATOM      4  C3   11 d          -4.384 208.335 118.846  0.00  0.00     0.247 A 
ATOM      5  N2   11 d          -5.010 207.051 118.751  0.00  0.00    -0.218 N 
ATOM      6  C4   11 d          -5.966 206.530 119.646  0.00  0.00     0.057 A 
ATOM      7  C5   11 d          -6.037 205.127 119.836  0.00  0.00     0.033 A 
ATOM      8  C6   11 d          -6.948 204.558 120.738  0.00  0.00     0.026 A 
ATOM      9  C7   11 d          -7.806 205.377 121.478  0.00  0.00     0.034 A 
ATOM     10 Cl1   11 d          -8.956 204.657 122.630  0.00  0.00    -0.084 Cl
ATOM     11  C8   11 d          -7.759 206.766 121.309  0.00  0.00     0.026 A 
ATOM     12  C9   11 d          -6.853 207.335 120.401  0.00  0.00     0.033 A 
ATOM     13  N3   11 d          -4.650 206.298 117.724  0.00  0.00    -0.155 NA
ATOM     14  C10  11 d          -3.722 206.842 116.997  0.00  0.00     0.193 C 
ATOM     15  S1   11 d          -3.021 208.363 117.622  0.00  0.00    -0.034 SA
ATOM     16  S2   11 d          -3.594 208.569 120.482  0.00  0.00    -0.056 SA
ATOM     17  C14  11 d          -5.895 209.578 117.383  0.00  0.00     0.038 A 
ATOM     18  C15  11 d          -7.015 208.789 117.055  0.00  0.00     0.030 A 
ATOM     19  C16  11 d          -7.599 208.880 115.783  0.00  0.00     0.002 A 
ATOM     20  C17  11 d          -7.075 209.766 114.829  0.00  0.00     0.000 A 
ATOM     21  C18  11 d          -5.970 210.566 115.151  0.00  0.00     0.002 A 
ATOM     22  C19  11 d          -5.381 210.471 116.420  0.00  0.00     0.030 A 
ATOM     23  C20  11 d          -6.180 211.630 119.541  0.00  0.00     0.070 C 
ENDROOT
BRANCH  14  24
ATOM     24  C11  11 d          -3.301 206.233 115.715  0.00  0.00     0.320 C 
ATOM     25  O1   11 d          -2.346 205.410 115.697  0.00  0.00    -0.257 OA
BRANCH  24  26
ATOM     26  O2   11 d          -4.004 206.584 114.516  0.00  0.00    -0.316 OA
BRANCH  26  27
ATOM     27  C12  11 d          -3.591 207.839 113.923  0.00  0.00     0.175 C 
ATOM     28  C13  11 d          -4.484 208.119 112.726  0.00  0.00     0.034 C 
ENDBRANCH  26  27
ENDBRANCH  24  26
ENDBRANCH  14  24
BRANCH   1  29
ATOM     29  C21  11 d          -4.451 210.810 122.001  0.00  0.00     0.164 C 
ATOM     30  O3   11 d          -5.360 210.672 122.857  0.00  0.00    -0.292 OA
ATOM     31  C22  11 d          -3.423 211.879 122.240  0.00  0.00     0.097 C 
ENDBRANCH   1  29
TORSDOF 4
ENDMDL
MODEL 9
REMARK VINA RESULT:      -5.6      2.705      6.917
REMARK  4 active torsions:
REMARK  status: ('A' for Active; 'I' for Inactive)
REMARK    1  A    between atoms: C1_1  and  C21_29 
REMARK    2  A    between atoms: C10_14  and  C11_15 
REMARK    3  A    between atoms: C11_15  and  O2_17 
REMARK    4  A    between atoms: O2_17  and  C12_18 
ROOT
ATOM      1  C1   11 d          -8.272 207.096 119.421  0.00  0.00     0.073 A 
ATOM      2  C2   11 d          -7.892 208.327 119.827  0.00  0.00     0.033 A 
ATOM      3  N1   11 d          -6.521 208.547 119.711  0.00  0.00    -0.302 N 
ATOM      4  C3   11 d          -5.767 207.488 119.139  0.00  0.00     0.247 A 
ATOM      5  N2   11 d          -5.041 207.826 117.952  0.00  0.00    -0.218 N 
ATOM      6  C4   11 d          -5.606 208.122 116.696  0.00  0.00     0.057 A 
ATOM      7  C5   11 d          -4.868 207.825 115.523  0.00  0.00     0.033 A 
ATOM      8  C6   11 d          -5.396 208.071 114.246  0.00  0.00     0.026 A 
ATOM      9  C7   11 d          -6.678 208.614 114.110  0.00  0.00     0.034 A 
ATOM     10 Cl1   11 d          -7.352 208.918 112.492  0.00  0.00    -0.084 Cl
ATOM     11  C8   11 d          -7.427 208.919 115.253  0.00  0.00     0.026 A 
ATOM     12  C9   11 d          -6.897 208.680 116.529  0.00  0.00     0.033 A 
ATOM     13  N3   11 d          -3.723 207.860 118.061  0.00  0.00    -0.155 NA
ATOM     14  C10  11 d          -3.301 207.511 119.238  0.00  0.00     0.193 C 
ATOM     15  S1   11 d          -4.543 206.902 120.372  0.00  0.00    -0.034 SA
ATOM     16  S2   11 d          -6.898 206.078 118.848  0.00  0.00    -0.056 SA
ATOM     17  C14  11 d          -5.888 209.717 120.130  0.00  0.00     0.038 A 
ATOM     18  C15  11 d          -5.438 210.685 119.210  0.00  0.00     0.030 A 
ATOM     19  C16  11 d          -4.724 211.808 119.655  0.00  0.00     0.002 A 
ATOM     20  C17  11 d          -4.461 211.980 121.022  0.00  0.00     0.000 A 
ATOM     21  C18  11 d          -4.918 211.030 121.947  0.00  0.00     0.002 A 
ATOM     22  C19  11 d          -5.626 209.903 121.503  0.00  0.00     0.030 A 
ATOM     23  C20  11 d          -8.836 209.330 120.461  0.00  0.00     0.070 C 
ENDROOT
BRANCH  14  24
ATOM     24  C11  11 d          -1.874 207.641 119.608  0.00  0.00     0.320 C 
ATOM     25  O1   11 d          -1.444 207.080 120.652  0.00  0.00    -0.257 OA
BRANCH  24  26
ATOM     26  O2   11 d          -1.001 208.395 118.756  0.00  0.00    -0.316 OA
BRANCH  26  27
ATOM     27  C12  11 d          -0.273 209.452 119.427  0.00  0.00     0.175 C 
ATOM     28  C13  11 d          -1.209 210.635 119.611  0.00  0.00     0.034 C 
ENDBRANCH  26  27
ENDBRANCH  24  26
ENDBRANCH  14  24
BRANCH   1  29
ATOM     29  C21  11 d          -9.650 206.520 119.386  0.00  0.00     0.164 C 
ATOM     30  O3   11 d          -9.893 205.510 120.092  0.00  0.00    -0.292 OA
ATOM     31  C22  11 d         -10.692 206.943 118.390  0.00  0.00     0.097 C 
ENDBRANCH   1  29
TORSDOF 4
ENDMDL
MODEL 10
REMARK VINA RESULT:      -5.5      3.333      6.755
REMARK  4 active torsions:
REMARK  status: ('A' for Active; 'I' for Inactive)
REMARK    1  A    between atoms: C1_1  and  C21_29 
REMARK    2  A    between atoms: C10_14  and  C11_15 
REMARK    3  A    between atoms: C11_15  and  O2_17 
REMARK    4  A    between atoms: O2_17  and  C12_18 
ROOT
ATOM      1  C1   11 d          -7.869 206.456 121.208  0.00  0.00     0.073 A 
ATOM      2  C2   11 d          -7.591 207.741 121.515  0.00  0.00     0.033 A 
ATOM      3  N1   11 d          -6.775 208.367 120.575  0.00  0.00    -0.302 N 
ATOM      4  C3   11 d          -6.423 207.590 119.439  0.00  0.00     0.247 A 
ATOM      5  N2   11 d          -6.818 208.139 118.178  0.00  0.00    -0.218 N 
ATOM      6  C4   11 d          -8.141 208.259 117.707  0.00  0.00     0.057 A 
ATOM      7  C5   11 d          -8.381 208.207 116.311  0.00  0.00     0.033 A 
ATOM      8  C6   11 d          -9.681 208.289 115.790  0.00  0.00     0.026 A 
ATOM      9  C7   11 d         -10.775 208.418 116.653  0.00  0.00     0.034 A 
ATOM     10 Cl1   11 d         -12.426 208.514 115.994  0.00  0.00    -0.084 Cl
ATOM     11  C8   11 d         -10.566 208.475 118.036  0.00  0.00     0.026 A 
ATOM     12  C9   11 d          -9.265 208.400 118.556  0.00  0.00     0.033 A 
ATOM     13  N3   11 d          -5.842 208.571 117.395  0.00  0.00    -0.155 NA
ATOM     14  C10  11 d          -4.661 208.359 117.891  0.00  0.00     0.193 C 
ATOM     15  S1   11 d          -4.601 207.396 119.396  0.00  0.00    -0.034 SA
ATOM     16  S2   11 d          -7.101 205.905 119.671  0.00  0.00    -0.056 SA
ATOM     17  C14  11 d          -6.299 209.672 120.712  0.00  0.00     0.038 A 
ATOM     18  C15  11 d          -6.833 210.736 119.959  0.00  0.00     0.030 A 
ATOM     19  C16  11 d          -6.275 212.020 120.050  0.00  0.00     0.002 A 
ATOM     20  C17  11 d          -5.184 212.255 120.900  0.00  0.00     0.000 A 
ATOM     21  C18  11 d          -4.654 211.205 121.664  0.00  0.00     0.002 A 
ATOM     22  C19  11 d          -5.208 209.920 121.569  0.00  0.00     0.030 A 
ATOM     23  C20  11 d          -8.017 208.407 122.809  0.00  0.00     0.070 C 
ENDROOT
BRANCH  14  24
ATOM     24  C11  11 d          -3.450 208.914 117.247  0.00  0.00     0.320 C 
ATOM     25  O1   11 d          -2.426 209.156 117.941  0.00  0.00    -0.257 OA
BRANCH  24  26
ATOM     26  O2   11 d          -3.462 209.150 115.833  0.00  0.00    -0.316 OA
BRANCH  26  27
ATOM     27  C12  11 d          -3.183 207.979 115.027  0.00  0.00     0.175 C 
ATOM     28  C13  11 d          -4.402 207.691 114.165  0.00  0.00     0.034 C 
ENDBRANCH  26  27
ENDBRANCH  24  26
ENDBRANCH  14  24
BRANCH   1  29
ATOM     29  C21  11 d          -8.719 205.489 121.967  0.00  0.00     0.164 C 
ATOM     30  O3   11 d          -9.962 205.516 121.784  0.00  0.00    -0.292 OA
ATOM     31  C22  11 d          -8.197 204.645 123.095  0.00  0.00     0.097 C 
ENDBRANCH   1  29
TORSDOF 4
ENDMDL
