MODEL 1
REMARK VINA RESULT:      -7.8      0.000      0.000
REMARK  1 active torsions:
REMARK  status: ('A' for Active; 'I' for Inactive)
REMARK    1  A    between atoms: C3_3  and  O1_4 
REMARK       I    between atoms: C9_11  and  N5_16 
REMARK       I    between atoms: C10_13  and  N4_15 
ROOT
ATOM      1  C1   11 d         -14.119 205.970 114.354  0.00  0.00     0.200 A 
ATOM      2  C2   11 d         -14.711 206.293 113.021  0.00  0.00     0.046 A 
ATOM      3  C3   11 d         -13.949 206.871 111.967  0.00  0.00     0.082 A 
ATOM      4  C5   11 d         -14.543 207.092 110.711  0.00  0.00     0.038 A 
ATOM      5  C6   11 d         -15.899 206.813 110.501  0.00  0.00     0.003 A 
ATOM      6  C7   11 d         -16.669 206.284 111.542  0.00  0.00     0.001 A 
ATOM      7  C8   11 d         -16.080 206.019 112.787  0.00  0.00     0.018 A 
ATOM      8  N1   11 d         -14.844 205.270 115.275  0.00  0.00    -0.041 NA
ATOM      9  C9   11 d         -14.325 204.968 116.495  0.00  0.00     0.738 A 
ATOM     10  N2   11 d         -13.068 205.372 116.813  0.00  0.00     0.129 NA
ATOM     11  C10  11 d         -12.332 206.072 115.911  0.00  0.00     0.738 A 
ATOM     12  N3   11 d         -12.859 206.365 114.693  0.00  0.00    -0.041 NA
ATOM     13  N4   11 d         -11.066 206.486 116.226  0.00  0.00    -0.230 N 
ATOM     14  N5   11 d         -15.067 204.257 117.400  0.00  0.00    -0.230 N 
ATOM     15  H8   11 d         -10.680 206.283 117.119  0.00  0.00     0.174 HD
ATOM     16  H9   11 d         -10.527 206.990 115.561  0.00  0.00     0.174 HD
ATOM     17  H10  11 d         -15.987 203.960 117.168  0.00  0.00     0.174 HD
ATOM     18  H11  11 d         -14.691 204.037 118.293  0.00  0.00     0.174 HD
ENDROOT
BRANCH   3  19
ATOM     19  O1   11 d         -12.550 207.102 112.086  0.00  0.00    -0.355 OA
ATOM     20  C4   11 d         -11.912 206.927 110.794  0.00  0.00     0.210 C 
ENDBRANCH   3  19
TORSDOF 1
ENDMDL
MODEL 2
REMARK VINA RESULT:      -7.6      1.957      2.083
REMARK  1 active torsions:
REMARK  status: ('A' for Active; 'I' for Inactive)
REMARK    1  A    between atoms: C3_3  and  O1_4 
REMARK       I    between atoms: C9_11  and  N5_16 
REMARK       I    between atoms: C10_13  and  N4_15 
ROOT
ATOM      1  C1   11 d         -13.166 207.509 113.814  0.00  0.00     0.200 A 
ATOM      2  C2   11 d         -13.937 207.223 112.566  0.00  0.00     0.046 A 
ATOM      3  C3   11 d         -13.300 206.929 111.327  0.00  0.00     0.082 A 
ATOM      4  C5   11 d         -14.077 206.602 110.200  0.00  0.00     0.038 A 
ATOM      5  C6   11 d         -15.475 206.628 110.262  0.00  0.00     0.003 A 
ATOM      6  C7   11 d         -16.112 206.956 111.464  0.00  0.00     0.001 A 
ATOM      7  C8   11 d         -15.352 207.243 112.606  0.00  0.00     0.018 A 
ATOM      8  N1   11 d         -13.816 207.624 115.010  0.00  0.00    -0.041 NA
ATOM      9  C9   11 d         -13.134 207.887 116.157  0.00  0.00     0.738 A 
ATOM     10  N2   11 d         -11.786 208.046 116.119  0.00  0.00     0.129 NA
ATOM     11  C10  11 d         -11.123 207.938 114.939  0.00  0.00     0.738 A 
ATOM     12  N3   11 d         -11.813 207.671 113.799  0.00  0.00    -0.041 NA
ATOM     13  N4   11 d          -9.765 208.101 114.894  0.00  0.00    -0.230 N 
ATOM     14  N5   11 d         -13.806 207.990 117.345  0.00  0.00    -0.230 N 
ATOM     15  H8   11 d          -9.257 208.307 115.723  0.00  0.00     0.174 HD
ATOM     16  H9   11 d          -9.281 208.014 114.031  0.00  0.00     0.174 HD
ATOM     17  H10  11 d         -14.792 207.872 117.374  0.00  0.00     0.174 HD
ATOM     18  H11  11 d         -13.310 208.183 118.185  0.00  0.00     0.174 HD
ENDROOT
BRANCH   3  19
ATOM     19  O1   11 d         -11.888 206.807 111.214  0.00  0.00    -0.355 OA
ATOM     20  C4   11 d         -11.435 207.452 109.996  0.00  0.00     0.210 C 
ENDBRANCH   3  19
TORSDOF 1
ENDMDL
MODEL 3
REMARK VINA RESULT:      -7.6      2.281      4.107
REMARK  1 active torsions:
REMARK  status: ('A' for Active; 'I' for Inactive)
REMARK    1  A    between atoms: C3_3  and  O1_4 
REMARK       I    between atoms: C9_11  and  N5_16 
REMARK       I    between atoms: C10_13  and  N4_15 
ROOT
ATOM      1  C1   11 d         -12.605 207.279 112.755  0.00  0.00     0.200 A 
ATOM      2  C2   11 d         -13.983 206.874 112.347  0.00  0.00     0.046 A 
ATOM      3  C3   11 d         -14.997 206.556 113.295  0.00  0.00     0.082 A 
ATOM      4  C5   11 d         -16.296 206.246 112.855  0.00  0.00     0.038 A 
ATOM      5  C6   11 d         -16.592 206.178 111.488  0.00  0.00     0.003 A 
ATOM      6  C7   11 d         -15.594 206.447 110.546  0.00  0.00     0.001 A 
ATOM      7  C8   11 d         -14.305 206.799 110.970  0.00  0.00     0.018 A 
ATOM      8  N1   11 d         -11.718 207.730 111.819  0.00  0.00    -0.041 NA
ATOM      9  C9   11 d         -10.457 208.101 112.168  0.00  0.00     0.738 A 
ATOM     10  N2   11 d         -10.063 208.018 113.465  0.00  0.00     0.129 NA
ATOM     11  C10  11 d         -10.930 207.568 114.409  0.00  0.00     0.738 A 
ATOM     12  N3   11 d         -12.189 207.204 114.051  0.00  0.00    -0.041 NA
ATOM     13  N4   11 d         -10.538 207.478 115.718  0.00  0.00    -0.230 N 
ATOM     14  N5   11 d          -9.587 208.559 111.215  0.00  0.00    -0.230 N 
ATOM     15  H8   11 d          -9.615 207.734 115.984  0.00  0.00     0.174 HD
ATOM     16  H9   11 d         -11.177 207.157 116.408  0.00  0.00     0.174 HD
ATOM     17  H10  11 d          -9.875 208.622 110.265  0.00  0.00     0.174 HD
ATOM     18  H11  11 d          -8.665 208.829 111.467  0.00  0.00     0.174 HD
ENDROOT
BRANCH   3  19
ATOM     19  O1   11 d         -14.787 206.684 114.696  0.00  0.00    -0.355 OA
ATOM     20  C4   11 d         -15.016 205.407 115.346  0.00  0.00     0.210 C 
ENDBRANCH   3  19
TORSDOF 1
ENDMDL
MODEL 4
REMARK VINA RESULT:      -7.5      1.721      3.717
REMARK  1 active torsions:
REMARK  status: ('A' for Active; 'I' for Inactive)
REMARK    1  A    between atoms: C3_3  and  O1_4 
REMARK       I    between atoms: C9_11  and  N5_16 
REMARK       I    between atoms: C10_13  and  N4_15 
ROOT
ATOM      1  C1   11 d         -12.473 207.120 114.301  0.00  0.00     0.200 A 
ATOM      2  C2   11 d         -11.784 207.365 112.999  0.00  0.00     0.046 A 
ATOM      3  C3   11 d         -12.290 206.874 111.763  0.00  0.00     0.082 A 
ATOM      4  C5   11 d         -11.634 207.193 110.560  0.00  0.00     0.038 A 
ATOM      5  C6   11 d         -10.446 207.933 110.567  0.00  0.00     0.003 A 
ATOM      6  C7   11 d          -9.915 208.387 111.780  0.00  0.00     0.001 A 
ATOM      7  C8   11 d         -10.581 208.112 112.983  0.00  0.00     0.018 A 
ATOM      8  N1   11 d         -12.040 207.746 115.436  0.00  0.00    -0.041 NA
ATOM      9  C9   11 d         -12.653 207.534 116.632  0.00  0.00     0.738 A 
ATOM     10  N2   11 d         -13.707 206.683 116.709  0.00  0.00     0.129 NA
ATOM     11  C10  11 d         -14.150 206.049 115.592  0.00  0.00     0.738 A 
ATOM     12  N3   11 d         -13.535 206.270 114.401  0.00  0.00    -0.041 NA
ATOM     13  N4   11 d         -15.211 205.186 115.664  0.00  0.00    -0.230 N 
ATOM     14  N5   11 d         -12.207 208.180 117.754  0.00  0.00    -0.230 N 
ATOM     15  H8   11 d         -15.658 205.013 116.535  0.00  0.00     0.174 HD
ATOM     16  H9   11 d         -15.538 204.729 114.845  0.00  0.00     0.174 HD
ATOM     17  H10  11 d         -11.436 208.804 117.698  0.00  0.00     0.174 HD
ATOM     18  H11  11 d         -12.651 208.026 118.629  0.00  0.00     0.174 HD
ENDROOT
BRANCH   3  19
ATOM     19  O1   11 d         -13.532 206.187 111.676  0.00  0.00    -0.355 OA
ATOM     20  C4   11 d         -14.321 206.734 110.588  0.00  0.00     0.210 C 
ENDBRANCH   3  19
TORSDOF 1
ENDMDL
MODEL 5
REMARK VINA RESULT:      -7.4      3.364      5.193
REMARK  1 active torsions:
REMARK  status: ('A' for Active; 'I' for Inactive)
REMARK    1  A    between atoms: C3_3  and  O1_4 
REMARK       I    between atoms: C9_11  and  N5_16 
REMARK       I    between atoms: C10_13  and  N4_15 
ROOT
ATOM      1  C1   11 d         -10.476 208.047 112.989  0.00  0.00     0.200 A 
ATOM      2  C2   11 d         -11.813 207.539 112.558  0.00  0.00     0.046 A 
ATOM      3  C3   11 d         -12.941 207.526 113.427  0.00  0.00     0.082 A 
ATOM      4  C5   11 d         -14.192 207.099 112.946  0.00  0.00     0.038 A 
ATOM      5  C6   11 d         -14.330 206.618 111.638  0.00  0.00     0.003 A 
ATOM      6  C7   11 d         -13.221 206.587 110.788  0.00  0.00     0.001 A 
ATOM      7  C8   11 d         -11.977 207.049 111.240  0.00  0.00     0.018 A 
ATOM      8  N1   11 d          -9.471 208.191 112.076  0.00  0.00    -0.041 NA
ATOM      9  C9   11 d          -8.245 208.650 112.447  0.00  0.00     0.738 A 
ATOM     10  N2   11 d          -8.008 208.964 113.747  0.00  0.00     0.129 NA
ATOM     11  C10  11 d          -8.994 208.824 114.670  0.00  0.00     0.738 A 
ATOM     12  N3   11 d         -10.217 208.370 114.287  0.00  0.00    -0.041 NA
ATOM     13  N4   11 d          -8.760 209.136 115.982  0.00  0.00    -0.230 N 
ATOM     14  N5   11 d          -7.255 208.794 111.513  0.00  0.00    -0.230 N 
ATOM     15  H8   11 d          -7.865 209.460 116.268  0.00  0.00     0.174 HD
ATOM     16  H9   11 d          -9.486 209.041 116.654  0.00  0.00     0.174 HD
ATOM     17  H10  11 d          -7.428 208.565 110.562  0.00  0.00     0.174 HD
ATOM     18  H11  11 d          -6.358 209.127 111.782  0.00  0.00     0.174 HD
ENDROOT
BRANCH   3  19
ATOM     19  O1   11 d         -12.889 208.075 114.738  0.00  0.00    -0.355 OA
ATOM     20  C4   11 d         -14.030 208.945 114.952  0.00  0.00     0.210 C 
ENDBRANCH   3  19
TORSDOF 1
ENDMDL
MODEL 6
REMARK VINA RESULT:      -7.3      2.425      3.457
REMARK  1 active torsions:
REMARK  status: ('A' for Active; 'I' for Inactive)
REMARK    1  A    between atoms: C3_3  and  O1_4 
REMARK       I    between atoms: C9_11  and  N5_16 
REMARK       I    between atoms: C10_13  and  N4_15 
ROOT
ATOM      1  C1   11 d         -12.451 207.189 114.445  0.00  0.00     0.200 A 
ATOM      2  C2   11 d         -11.761 207.462 113.149  0.00  0.00     0.046 A 
ATOM      3  C3   11 d         -10.566 208.230 113.067  0.00  0.00     0.082 A 
ATOM      4  C5   11 d          -9.923 208.398 111.827  0.00  0.00     0.038 A 
ATOM      5  C6   11 d         -10.482 207.876 110.655  0.00  0.00     0.003 A 
ATOM      6  C7   11 d         -11.678 207.154 110.716  0.00  0.00     0.001 A 
ATOM      7  C8   11 d         -12.308 206.942 111.951  0.00  0.00     0.018 A 
ATOM      8  N1   11 d         -13.499 206.314 114.494  0.00  0.00    -0.041 NA
ATOM      9  C9   11 d         -14.142 206.054 115.664  0.00  0.00     0.738 A 
ATOM     10  N2   11 d         -13.747 206.675 116.805  0.00  0.00     0.129 NA
ATOM     11  C10  11 d         -12.709 207.550 116.775  0.00  0.00     0.738 A 
ATOM     12  N3   11 d         -12.070 207.800 115.603  0.00  0.00    -0.041 NA
ATOM     13  N4   11 d         -12.308 208.182 117.921  0.00  0.00    -0.230 N 
ATOM     14  N5   11 d         -15.185 205.167 115.690  0.00  0.00    -0.230 N 
ATOM     15  H8   11 d         -12.779 208.011 118.780  0.00  0.00     0.174 HD
ATOM     16  H9   11 d         -11.543 208.816 117.899  0.00  0.00     0.174 HD
ATOM     17  H10  11 d         -15.474 204.710 114.856  0.00  0.00     0.174 HD
ATOM     18  H11  11 d         -15.658 204.976 116.543  0.00  0.00     0.174 HD
ENDROOT
BRANCH   3  19
ATOM     19  O1   11 d          -9.903 208.720 114.227  0.00  0.00    -0.355 OA
ATOM     20  C4   11 d          -8.786 209.560 113.836  0.00  0.00     0.210 C 
ENDBRANCH   3  19
TORSDOF 1
ENDMDL
MODEL 7
REMARK VINA RESULT:      -7.3      1.276      3.103
REMARK  1 active torsions:
REMARK  status: ('A' for Active; 'I' for Inactive)
REMARK    1  A    between atoms: C3_3  and  O1_4 
REMARK       I    between atoms: C9_11  and  N5_16 
REMARK       I    between atoms: C10_13  and  N4_15 
ROOT
ATOM      1  C1   11 d         -13.334 206.246 114.021  0.00  0.00     0.200 A 
ATOM      2  C2   11 d         -13.651 206.436 112.573  0.00  0.00     0.046 A 
ATOM      3  C3   11 d         -14.951 206.207 112.040  0.00  0.00     0.082 A 
ATOM      4  C5   11 d         -15.207 206.466 110.682  0.00  0.00     0.038 A 
ATOM      5  C6   11 d         -14.181 206.882 109.826  0.00  0.00     0.003 A 
ATOM      6  C7   11 d         -12.889 207.071 110.329  0.00  0.00     0.001 A 
ATOM      7  C8   11 d         -12.628 206.857 111.690  0.00  0.00     0.018 A 
ATOM      8  N1   11 d         -12.120 206.634 114.514  0.00  0.00    -0.041 NA
ATOM      9  C9   11 d         -11.811 206.468 115.828  0.00  0.00     0.738 A 
ATOM     10  N2   11 d         -12.715 205.902 116.668  0.00  0.00     0.129 NA
ATOM     11  C10  11 d         -13.926 205.508 116.196  0.00  0.00     0.738 A 
ATOM     12  N3   11 d         -14.227 205.682 114.883  0.00  0.00    -0.041 NA
ATOM     13  N4   11 d         -14.841 204.934 117.037  0.00  0.00    -0.230 N 
ATOM     14  N5   11 d         -10.591 206.871 116.301  0.00  0.00    -0.230 N 
ATOM     15  H8   11 d         -14.621 204.795 117.997  0.00  0.00     0.174 HD
ATOM     16  H9   11 d         -15.729 204.654 116.691  0.00  0.00     0.174 HD
ATOM     17  H10  11 d          -9.929 207.286 115.687  0.00  0.00     0.174 HD
ATOM     18  H11  11 d         -10.362 206.750 117.260  0.00  0.00     0.174 HD
ENDROOT
BRANCH   3  19
ATOM     19  O1   11 d         -16.056 205.862 112.867  0.00  0.00    -0.355 OA
ATOM     20  C4   11 d         -17.278 205.880 112.086  0.00  0.00     0.210 C 
ENDBRANCH   3  19
TORSDOF 1
ENDMDL
MODEL 8
REMARK VINA RESULT:      -7.1      2.088      3.857
REMARK  1 active torsions:
REMARK  status: ('A' for Active; 'I' for Inactive)
REMARK    1  A    between atoms: C3_3  and  O1_4 
REMARK       I    between atoms: C9_11  and  N5_16 
REMARK       I    between atoms: C10_13  and  N4_15 
ROOT
ATOM      1  C1   11 d         -12.470 207.051 115.750  0.00  0.00     0.200 A 
ATOM      2  C2   11 d         -12.472 206.801 114.277  0.00  0.00     0.046 A 
ATOM      3  C3   11 d         -13.526 206.101 113.624  0.00  0.00     0.082 A 
ATOM      4  C5   11 d         -13.508 205.953 112.225  0.00  0.00     0.038 A 
ATOM      5  C6   11 d         -12.429 206.427 111.469  0.00  0.00     0.003 A 
ATOM      6  C7   11 d         -11.368 207.080 112.104  0.00  0.00     0.001 A 
ATOM      7  C8   11 d         -11.392 207.272 113.493  0.00  0.00     0.018 A 
ATOM      8  N1   11 d         -11.524 207.864 116.306  0.00  0.00    -0.041 NA
ATOM      9  C9   11 d         -11.503 208.103 117.645  0.00  0.00     0.738 A 
ATOM     10  N2   11 d         -12.429 207.521 118.449  0.00  0.00     0.129 NA
ATOM     11  C10  11 d         -13.375 206.706 117.915  0.00  0.00     0.738 A 
ATOM     12  N3   11 d         -13.391 206.478 116.576  0.00  0.00    -0.041 NA
ATOM     13  N4   11 d         -14.309 206.114 118.721  0.00  0.00    -0.230 N 
ATOM     14  N5   11 d         -10.550 208.929 118.179  0.00  0.00    -0.230 N 
ATOM     15  H8   11 d         -14.296 206.270 119.703  0.00  0.00     0.174 HD
ATOM     16  H9   11 d         -15.006 205.525 118.327  0.00  0.00     0.174 HD
ATOM     17  H10  11 d          -9.872 209.356 117.591  0.00  0.00     0.174 HD
ATOM     18  H11  11 d         -10.531 209.104 119.157  0.00  0.00     0.174 HD
ENDROOT
BRANCH   3  19
ATOM     19  O1   11 d         -14.688 205.666 114.319  0.00  0.00    -0.355 OA
ATOM     20  C4   11 d         -15.871 206.244 113.708  0.00  0.00     0.210 C 
ENDBRANCH   3  19
TORSDOF 1
ENDMDL
MODEL 9
REMARK VINA RESULT:      -7.0      2.893      5.083
REMARK  1 active torsions:
REMARK  status: ('A' for Active; 'I' for Inactive)
REMARK    1  A    between atoms: C3_3  and  O1_4 
REMARK       I    between atoms: C9_11  and  N5_16 
REMARK       I    between atoms: C10_13  and  N4_15 
ROOT
ATOM      1  C1   11 d         -12.483 206.906 113.233  0.00  0.00     0.200 A 
ATOM      2  C2   11 d         -11.222 207.708 113.239  0.00  0.00     0.046 A 
ATOM      3  C3   11 d         -10.644 208.212 114.438  0.00  0.00     0.082 A 
ATOM      4  C5   11 d          -9.421 208.904 114.390  0.00  0.00     0.038 A 
ATOM      5  C6   11 d          -8.793 209.165 113.166  0.00  0.00     0.003 A 
ATOM      6  C7   11 d          -9.373 208.711 111.977  0.00  0.00     0.001 A 
ATOM      7  C8   11 d         -10.571 207.983 112.012  0.00  0.00     0.018 A 
ATOM      8  N1   11 d         -12.909 206.308 112.082  0.00  0.00    -0.041 NA
ATOM      9  C9   11 d         -14.055 205.575 112.054  0.00  0.00     0.738 A 
ATOM     10  N2   11 d         -14.796 205.438 113.184  0.00  0.00     0.129 NA
ATOM     11  C10  11 d         -14.390 206.029 114.337  0.00  0.00     0.738 A 
ATOM     12  N3   11 d         -13.241 206.754 114.356  0.00  0.00    -0.041 NA
ATOM     13  N4   11 d         -15.134 205.897 115.478  0.00  0.00    -0.230 N 
ATOM     14  N5   11 d         -14.459 204.978 110.890  0.00  0.00    -0.230 N 
ATOM     15  H8   11 d         -15.980 205.376 115.468  0.00  0.00     0.174 HD
ATOM     16  H9   11 d         -14.830 206.323 116.323  0.00  0.00     0.174 HD
ATOM     17  H10  11 d         -13.917 205.076 110.063  0.00  0.00     0.174 HD
ATOM     18  H11  11 d         -15.297 204.443 110.867  0.00  0.00     0.174 HD
ENDROOT
BRANCH   3  19
ATOM     19  O1   11 d         -11.185 207.914 115.720  0.00  0.00    -0.355 OA
ATOM     20  C4   11 d         -10.288 208.395 116.755  0.00  0.00     0.210 C 
ENDBRANCH   3  19
TORSDOF 1
ENDMDL
MODEL 10
REMARK VINA RESULT:      -7.0      2.254      2.837
REMARK  1 active torsions:
REMARK  status: ('A' for Active; 'I' for Inactive)
REMARK    1  A    between atoms: C3_3  and  O1_4 
REMARK       I    between atoms: C9_11  and  N5_16 
REMARK       I    between atoms: C10_13  and  N4_15 
ROOT
ATOM      1  C1   11 d         -12.581 207.275 115.700  0.00  0.00     0.200 A 
ATOM      2  C2   11 d         -12.658 206.951 114.244  0.00  0.00     0.046 A 
ATOM      3  C3   11 d         -11.569 207.170 113.354  0.00  0.00     0.082 A 
ATOM      4  C5   11 d         -11.676 206.783 112.006  0.00  0.00     0.038 A 
ATOM      5  C6   11 d         -12.869 206.247 111.507  0.00  0.00     0.003 A 
ATOM      6  C7   11 d         -13.961 206.066 112.362  0.00  0.00     0.001 A 
ATOM      7  C8   11 d         -13.855 206.407 113.718  0.00  0.00     0.018 A 
ATOM      8  N1   11 d         -13.589 206.898 116.541  0.00  0.00    -0.041 NA
ATOM      9  C9   11 d         -13.539 207.186 117.870  0.00  0.00     0.738 A 
ATOM     10  N2   11 d         -12.477 207.864 118.374  0.00  0.00     0.129 NA
ATOM     11  C10  11 d         -11.466 208.250 117.553  0.00  0.00     0.738 A 
ATOM     12  N3   11 d         -11.523 207.954 116.228  0.00  0.00    -0.041 NA
ATOM     13  N4   11 d         -10.394 208.937 118.055  0.00  0.00    -0.230 N 
ATOM     14  N5   11 d         -14.557 206.791 118.695  0.00  0.00    -0.230 N 
ATOM     15  H8   11 d         -10.353 209.165 119.021  0.00  0.00     0.174 HD
ATOM     16  H9   11 d          -9.652 209.211 117.454  0.00  0.00     0.174 HD
ATOM     17  H10  11 d         -15.335 206.293 118.327  0.00  0.00     0.174 HD
ATOM     18  H11  11 d         -14.524 207.001 119.666  0.00  0.00     0.174 HD
ENDROOT
BRANCH   3  19
ATOM     19  O1   11 d         -10.304 207.634 113.810  0.00  0.00    -0.355 OA
ATOM     20  C4   11 d          -9.610 208.309 112.729  0.00  0.00     0.210 C 
ENDBRANCH   3  19
TORSDOF 1
ENDMDL
MODEL 11
REMARK VINA RESULT:      -7.0      2.925      5.664
REMARK  1 active torsions:
REMARK  status: ('A' for Active; 'I' for Inactive)
REMARK    1  A    between atoms: C3_3  and  O1_4 
REMARK       I    between atoms: C9_11  and  N5_16 
REMARK       I    between atoms: C10_13  and  N4_15 
ROOT
ATOM      1  C1   11 d         -14.396 206.952 112.759  0.00  0.00     0.200 A 
ATOM      2  C2   11 d         -13.409 207.157 113.861  0.00  0.00     0.046 A 
ATOM      3  C3   11 d         -13.638 206.693 115.187  0.00  0.00     0.082 A 
ATOM      4  C5   11 d         -12.644 206.855 116.169  0.00  0.00     0.038 A 
ATOM      5  C6   11 d         -11.453 207.531 115.877  0.00  0.00     0.003 A 
ATOM      6  C7   11 d         -11.233 208.028 114.588  0.00  0.00     0.001 A 
ATOM      7  C8   11 d         -12.197 207.837 113.588  0.00  0.00     0.018 A 
ATOM      8  N1   11 d         -14.063 207.268 111.473  0.00  0.00    -0.041 NA
ATOM      9  C9   11 d         -14.948 207.092 110.455  0.00  0.00     0.738 A 
ATOM     10  N2   11 d         -16.187 206.600 110.715  0.00  0.00     0.129 NA
ATOM     11  C10  11 d         -16.537 206.283 111.988  0.00  0.00     0.738 A 
ATOM     12  N3   11 d         -15.644 206.458 112.997  0.00  0.00    -0.041 NA
ATOM     13  N4   11 d         -17.785 205.790 112.258  0.00  0.00    -0.230 N 
ATOM     14  N5   11 d         -14.590 207.408 109.172  0.00  0.00    -0.230 N 
ATOM     15  H8   11 d         -18.445 205.670 111.524  0.00  0.00     0.174 HD
ATOM     16  H9   11 d         -18.037 205.551 113.189  0.00  0.00     0.174 HD
ATOM     17  H10  11 d         -13.683 207.767 108.980  0.00  0.00     0.174 HD
ATOM     18  H11  11 d         -15.235 207.282 108.427  0.00  0.00     0.174 HD
ENDROOT
BRANCH   3  19
ATOM     19  O1   11 d         -14.787 205.929 115.531  0.00  0.00    -0.355 OA
ATOM     20  C4   11 d         -14.414 204.862 116.441  0.00  0.00     0.210 C 
ENDBRANCH   3  19
TORSDOF 1
ENDMDL
MODEL 12
REMARK VINA RESULT:      -6.5      3.140      5.155
REMARK  1 active torsions:
REMARK  status: ('A' for Active; 'I' for Inactive)
REMARK    1  A    between atoms: C3_3  and  O1_4 
REMARK       I    between atoms: C9_11  and  N5_16 
REMARK       I    between atoms: C10_13  and  N4_15 
ROOT
ATOM      1  C1   11 d         -12.808 206.810 112.347  0.00  0.00     0.200 A 
ATOM      2  C2   11 d         -13.147 206.391 113.740  0.00  0.00     0.046 A 
ATOM      3  C3   11 d         -12.273 206.617 114.840  0.00  0.00     0.082 A 
ATOM      4  C5   11 d         -12.674 206.260 116.140  0.00  0.00     0.038 A 
ATOM      5  C6   11 d         -13.900 205.620 116.360  0.00  0.00     0.003 A 
ATOM      6  C7   11 d         -14.750 205.356 115.282  0.00  0.00     0.001 A 
ATOM      7  C8   11 d         -14.382 205.743 113.986  0.00  0.00     0.018 A 
ATOM      8  N1   11 d         -13.743 206.720 111.356  0.00  0.00    -0.041 NA
ATOM      9  C9   11 d         -13.453 207.095 110.081  0.00  0.00     0.738 A 
ATOM     10  N2   11 d         -12.214 207.560 109.779  0.00  0.00     0.129 NA
ATOM     11  C10  11 d         -11.270 207.653 110.750  0.00  0.00     0.738 A 
ATOM     12  N3   11 d         -11.570 207.281 112.022  0.00  0.00    -0.041 NA
ATOM     13  N4   11 d         -10.017 208.118 110.451  0.00  0.00    -0.230 N 
ATOM     14  N5   11 d         -14.410 207.004 109.105  0.00  0.00    -0.230 N 
ATOM     15  H8   11 d          -9.789 208.382 109.521  0.00  0.00     0.174 HD
ATOM     16  H9   11 d          -9.330 208.193 111.165  0.00  0.00     0.174 HD
ATOM     17  H10  11 d         -15.318 206.665 109.325  0.00  0.00     0.174 HD
ATOM     18  H11  11 d         -14.201 207.275 108.172  0.00  0.00     0.174 HD
ENDROOT
BRANCH   3  19
ATOM     19  O1   11 d         -11.052 207.333 114.698  0.00  0.00    -0.355 OA
ATOM     20  C4   11 d         -11.101 208.548 115.489  0.00  0.00     0.210 C 
ENDBRANCH   3  19
TORSDOF 1
ENDMDL
MODEL 13
REMARK VINA RESULT:      -6.4      4.232      6.428
REMARK  1 active torsions:
REMARK  status: ('A' for Active; 'I' for Inactive)
REMARK    1  A    between atoms: C3_3  and  O1_4 
REMARK       I    between atoms: C9_11  and  N5_16 
REMARK       I    between atoms: C10_13  and  N4_15 
ROOT
ATOM      1  C1   11 d         -10.411 208.131 113.531  0.00  0.00     0.200 A 
ATOM      2  C2   11 d          -8.956 208.410 113.340  0.00  0.00     0.046 A 
ATOM      3  C3   11 d          -8.105 208.793 114.415  0.00  0.00     0.082 A 
ATOM      4  C5   11 d          -6.729 208.978 114.188  0.00  0.00     0.038 A 
ATOM      5  C6   11 d          -6.193 208.857 112.901  0.00  0.00     0.003 A 
ATOM      6  C7   11 d          -7.026 208.521 111.829  0.00  0.00     0.001 A 
ATOM      7  C8   11 d          -8.392 208.293 112.047  0.00  0.00     0.018 A 
ATOM      8  N1   11 d         -11.150 207.610 112.507  0.00  0.00    -0.041 NA
ATOM      9  C9   11 d         -12.476 207.351 112.660  0.00  0.00     0.738 A 
ATOM     10  N2   11 d         -13.085 207.619 113.844  0.00  0.00     0.129 NA
ATOM     11  C10  11 d         -12.367 208.139 114.873  0.00  0.00     0.738 A 
ATOM     12  N3   11 d         -11.042 208.390 114.712  0.00  0.00    -0.041 NA
ATOM     13  N4   11 d         -12.975 208.414 116.068  0.00  0.00    -0.230 N 
ATOM     14  N5   11 d         -13.195 206.821 111.622  0.00  0.00    -0.230 N 
ATOM     15  H8   11 d         -13.947 208.242 116.187  0.00  0.00     0.174 HD
ATOM     16  H9   11 d         -12.447 208.787 116.822  0.00  0.00     0.174 HD
ATOM     17  H10  11 d         -12.750 206.624 110.755  0.00  0.00     0.174 HD
ATOM     18  H11  11 d         -14.165 206.633 111.730  0.00  0.00     0.174 HD
ENDROOT
BRANCH   3  19
ATOM     19  O1   11 d          -8.567 208.854 115.759  0.00  0.00    -0.355 OA
ATOM     20  C4   11 d          -7.501 208.464 116.663  0.00  0.00     0.210 C 
ENDBRANCH   3  19
TORSDOF 1
ENDMDL
MODEL 14
REMARK VINA RESULT:      -6.1      2.338      3.473
REMARK  1 active torsions:
REMARK  status: ('A' for Active; 'I' for Inactive)
REMARK    1  A    between atoms: C3_3  and  O1_4 
REMARK       I    between atoms: C9_11  and  N5_16 
REMARK       I    between atoms: C10_13  and  N4_15 
ROOT
ATOM      1  C1   11 d         -14.332 205.202 116.630  0.00  0.00     0.200 A 
ATOM      2  C2   11 d         -14.026 206.007 115.410  0.00  0.00     0.046 A 
ATOM      3  C3   11 d         -13.163 207.138 115.438  0.00  0.00     0.082 A 
ATOM      4  C5   11 d         -12.858 207.819 114.245  0.00  0.00     0.038 A 
ATOM      5  C6   11 d         -13.449 207.440 113.034  0.00  0.00     0.003 A 
ATOM      6  C7   11 d         -14.332 206.356 113.000  0.00  0.00     0.001 A 
ATOM      7  C8   11 d         -14.612 205.642 114.173  0.00  0.00     0.018 A 
ATOM      8  N1   11 d         -15.033 204.034 116.523  0.00  0.00    -0.041 NA
ATOM      9  C9   11 d         -15.324 203.287 117.622  0.00  0.00     0.738 A 
ATOM     10  N2   11 d         -14.922 203.706 118.849  0.00  0.00     0.129 NA
ATOM     11  C10  11 d         -14.227 204.866 118.975  0.00  0.00     0.738 A 
ATOM     12  N3   11 d         -13.937 205.603 117.871  0.00  0.00    -0.041 NA
ATOM     13  N4   11 d         -13.821 205.296 120.210  0.00  0.00    -0.230 N 
ATOM     14  N5   11 d         -16.021 202.116 117.490  0.00  0.00    -0.230 N 
ATOM     15  H8   11 d         -14.040 204.766 121.022  0.00  0.00     0.174 HD
ATOM     16  H9   11 d         -13.306 206.141 120.299  0.00  0.00     0.174 HD
ATOM     17  H10  11 d         -16.314 201.808 116.592  0.00  0.00     0.174 HD
ATOM     18  H11  11 d         -16.236 201.569 118.291  0.00  0.00     0.174 HD
ENDROOT
BRANCH   3  19
ATOM     19  O1   11 d         -12.467 207.527 116.616  0.00  0.00    -0.355 OA
ATOM     20  C4   11 d         -11.074 207.784 116.302  0.00  0.00     0.210 C 
ENDBRANCH   3  19
TORSDOF 1
ENDMDL
MODEL 15
REMARK VINA RESULT:      -6.1      4.204      6.069
REMARK  1 active torsions:
REMARK  status: ('A' for Active; 'I' for Inactive)
REMARK    1  A    between atoms: C3_3  and  O1_4 
REMARK       I    between atoms: C9_11  and  N5_16 
REMARK       I    between atoms: C10_13  and  N4_15 
ROOT
ATOM      1  C1   11 d         -10.499 208.164 114.442  0.00  0.00     0.200 A 
ATOM      2  C2   11 d         -11.567 207.488 115.238  0.00  0.00     0.046 A 
ATOM      3  C3   11 d         -11.675 207.635 116.650  0.00  0.00     0.082 A 
ATOM      4  C5   11 d         -12.741 207.029 117.339  0.00  0.00     0.038 A 
ATOM      5  C6   11 d         -13.664 206.222 116.662  0.00  0.00     0.003 A 
ATOM      6  C7   11 d         -13.544 206.036 115.281  0.00  0.00     0.001 A 
ATOM      7  C8   11 d         -12.511 206.668 114.575  0.00  0.00     0.018 A 
ATOM      8  N1   11 d         -10.532 208.125 113.077  0.00  0.00    -0.041 NA
ATOM      9  C9   11 d          -9.568 208.732 112.333  0.00  0.00     0.738 A 
ATOM     10  N2   11 d          -8.549 209.382 112.951  0.00  0.00     0.129 NA
ATOM     11  C10  11 d          -8.497 209.429 114.307  0.00  0.00     0.738 A 
ATOM     12  N3   11 d          -9.467 208.824 115.041  0.00  0.00    -0.041 NA
ATOM     13  N4   11 d          -7.470 210.080 114.935  0.00  0.00    -0.230 N 
ATOM     14  N5   11 d          -9.627 208.686 110.966  0.00  0.00    -0.230 N 
ATOM     15  H8   11 d          -6.752 210.516 114.403  0.00  0.00     0.174 HD
ATOM     16  H9   11 d          -7.438 210.120 115.928  0.00  0.00     0.174 HD
ATOM     17  H10  11 d         -10.374 208.212 110.513  0.00  0.00     0.174 HD
ATOM     18  H11  11 d          -8.924 209.127 110.420  0.00  0.00     0.174 HD
ENDROOT
BRANCH   3  19
ATOM     19  O1   11 d         -10.822 208.504 117.385  0.00  0.00    -0.355 OA
ATOM     20  C4   11 d         -10.172 207.766 118.453  0.00  0.00     0.210 C 
ENDBRANCH   3  19
TORSDOF 1
ENDMDL
MODEL 16
REMARK VINA RESULT:      -5.9      6.706      9.250
REMARK  1 active torsions:
REMARK  status: ('A' for Active; 'I' for Inactive)
REMARK    1  A    between atoms: C3_3  and  O1_4 
REMARK       I    between atoms: C9_11  and  N5_16 
REMARK       I    between atoms: C10_13  and  N4_15 
ROOT
ATOM      1  C1   11 d         -18.006 203.471 119.791  0.00  0.00     0.200 A 
ATOM      2  C2   11 d         -18.256 203.892 121.202  0.00  0.00     0.046 A 
ATOM      3  C3   11 d         -17.199 204.163 122.116  0.00  0.00     0.082 A 
ATOM      4  C5   11 d         -17.493 204.621 123.413  0.00  0.00     0.038 A 
ATOM      5  C6   11 d         -18.819 204.749 123.843  0.00  0.00     0.003 A 
ATOM      6  C7   11 d         -19.867 204.446 122.968  0.00  0.00     0.001 A 
ATOM      7  C8   11 d         -19.589 204.029 121.658  0.00  0.00     0.018 A 
ATOM      8  N1   11 d         -19.045 203.381 118.908  0.00  0.00    -0.041 NA
ATOM      9  C9   11 d         -18.839 202.997 117.619  0.00  0.00     0.738 A 
ATOM     10  N2   11 d         -17.586 202.690 117.198  0.00  0.00     0.129 NA
ATOM     11  C10  11 d         -16.541 202.771 118.062  0.00  0.00     0.738 A 
ATOM     12  N3   11 d         -16.756 203.160 119.346  0.00  0.00    -0.041 NA
ATOM     13  N4   11 d         -15.275 202.459 117.644  0.00  0.00    -0.230 N 
ATOM     14  N5   11 d         -19.895 202.922 116.750  0.00  0.00    -0.230 N 
ATOM     15  H8   11 d         -15.115 202.164 116.709  0.00  0.00     0.174 HD
ATOM     16  H9   11 d         -14.511 202.527 118.276  0.00  0.00     0.174 HD
ATOM     17  H10  11 d         -20.812 203.148 117.057  0.00  0.00     0.174 HD
ATOM     18  H11  11 d         -19.748 202.640 115.808  0.00  0.00     0.174 HD
ENDROOT
BRANCH   3  19
ATOM     19  O1   11 d         -15.833 204.132 121.721  0.00  0.00    -0.355 OA
ATOM     20  C4   11 d         -15.057 203.385 122.693  0.00  0.00     0.210 C 
ENDBRANCH   3  19
TORSDOF 1
ENDMDL
MODEL 17
REMARK VINA RESULT:      -5.8     14.087     15.934
REMARK  1 active torsions:
REMARK  status: ('A' for Active; 'I' for Inactive)
REMARK    1  A    between atoms: C3_3  and  O1_4 
REMARK       I    between atoms: C9_11  and  N5_16 
REMARK       I    between atoms: C10_13  and  N4_15 
ROOT
ATOM      1  C1   11 d         -10.216 215.747 125.397  0.00  0.00     0.200 A 
ATOM      2  C2   11 d         -11.376 214.830 125.186  0.00  0.00     0.046 A 
ATOM      3  C3   11 d         -11.904 214.015 126.227  0.00  0.00     0.082 A 
ATOM      4  C5   11 d         -13.040 213.220 125.988  0.00  0.00     0.038 A 
ATOM      5  C6   11 d         -13.621 213.166 124.715  0.00  0.00     0.003 A 
ATOM      6  C7   11 d         -13.086 213.931 123.673  0.00  0.00     0.001 A 
ATOM      7  C8   11 d         -11.980 214.760 123.907  0.00  0.00     0.018 A 
ATOM      8  N1   11 d          -9.850 216.626 124.418  0.00  0.00    -0.041 NA
ATOM      9  C9   11 d          -8.795 217.468 124.590  0.00  0.00     0.738 A 
ATOM     10  N2   11 d          -8.086 217.435 125.747  0.00  0.00     0.129 NA
ATOM     11  C10  11 d          -8.433 216.565 126.730  0.00  0.00     0.738 A 
ATOM     12  N3   11 d          -9.491 215.732 126.552  0.00  0.00    -0.041 NA
ATOM     13  N4   11 d          -7.720 216.524 127.898  0.00  0.00    -0.230 N 
ATOM     14  N5   11 d          -8.452 218.347 123.598  0.00  0.00    -0.230 N 
ATOM     15  H8   11 d          -6.939 217.125 128.030  0.00  0.00     0.174 HD
ATOM     16  H9   11 d          -7.981 215.893 128.620  0.00  0.00     0.174 HD
ATOM     17  H10  11 d          -8.971 218.373 122.751  0.00  0.00     0.174 HD
ATOM     18  H11  11 d          -7.681 218.962 123.719  0.00  0.00     0.174 HD
ENDROOT
BRANCH   3  19
ATOM     19  O1   11 d         -11.414 214.082 127.560  0.00  0.00    -0.355 OA
ATOM     20  C4   11 d         -11.840 212.909 128.300  0.00  0.00     0.210 C 
ENDBRANCH   3  19
TORSDOF 1
ENDMDL
MODEL 18
REMARK VINA RESULT:      -5.4      2.841      5.109
REMARK  1 active torsions:
REMARK  status: ('A' for Active; 'I' for Inactive)
REMARK    1  A    between atoms: C3_3  and  O1_4 
REMARK       I    between atoms: C9_11  and  N5_16 
REMARK       I    between atoms: C10_13  and  N4_15 
ROOT
ATOM      1  C1   11 d         -13.293 205.679 117.960  0.00  0.00     0.200 A 
ATOM      2  C2   11 d         -12.313 206.617 117.335  0.00  0.00     0.046 A 
ATOM      3  C3   11 d         -11.975 206.559 115.954  0.00  0.00     0.082 A 
ATOM      4  C5   11 d         -11.095 207.510 115.406  0.00  0.00     0.038 A 
ATOM      5  C6   11 d         -10.490 208.477 116.218  0.00  0.00     0.003 A 
ATOM      6  C7   11 d         -10.783 208.519 117.585  0.00  0.00     0.001 A 
ATOM      7  C8   11 d         -11.690 207.604 118.137  0.00  0.00     0.018 A 
ATOM      8  N1   11 d         -13.707 205.877 119.247  0.00  0.00    -0.041 NA
ATOM      9  C9   11 d         -14.597 205.033 119.835  0.00  0.00     0.738 A 
ATOM     10  N2   11 d         -15.082 203.972 119.141  0.00  0.00     0.129 NA
ATOM     11  C10  11 d         -14.680 203.757 117.861  0.00  0.00     0.738 A 
ATOM     12  N3   11 d         -13.794 204.608 117.281  0.00  0.00    -0.041 NA
ATOM     13  N4   11 d         -15.161 202.687 117.157  0.00  0.00    -0.230 N 
ATOM     14  N5   11 d         -15.004 205.256 121.123  0.00  0.00    -0.230 N 
ATOM     15  H8   11 d         -15.802 202.056 117.581  0.00  0.00     0.174 HD
ATOM     16  H9   11 d         -14.872 202.537 116.219  0.00  0.00     0.174 HD
ATOM     17  H10  11 d         -14.651 206.033 121.632  0.00  0.00     0.174 HD
ATOM     18  H11  11 d         -15.653 204.640 121.556  0.00  0.00     0.174 HD
ENDROOT
BRANCH   3  19
ATOM     19  O1   11 d         -12.612 205.656 115.058  0.00  0.00    -0.355 OA
ATOM     20  C4   11 d         -12.990 206.354 113.843  0.00  0.00     0.210 C 
ENDBRANCH   3  19
TORSDOF 1
ENDMDL
MODEL 19
REMARK VINA RESULT:      -5.4      6.838      9.234
REMARK  1 active torsions:
REMARK  status: ('A' for Active; 'I' for Inactive)
REMARK    1  A    between atoms: C3_3  and  O1_4 
REMARK       I    between atoms: C9_11  and  N5_16 
REMARK       I    between atoms: C10_13  and  N4_15 
ROOT
ATOM      1  C1   11 d         -17.041 203.803 120.514  0.00  0.00     0.200 A 
ATOM      2  C2   11 d         -18.137 203.935 121.520  0.00  0.00     0.046 A 
ATOM      3  C3   11 d         -18.130 204.938 122.529  0.00  0.00     0.082 A 
ATOM      4  C5   11 d         -19.223 205.057 123.408  0.00  0.00     0.038 A 
ATOM      5  C6   11 d         -20.292 204.155 123.347  0.00  0.00     0.003 A 
ATOM      6  C7   11 d         -20.291 203.139 122.386  0.00  0.00     0.001 A 
ATOM      7  C8   11 d         -19.229 203.034 121.476  0.00  0.00     0.018 A 
ATOM      8  N1   11 d         -17.170 202.933 119.469  0.00  0.00    -0.041 NA
ATOM      9  C9   11 d         -16.182 202.796 118.544  0.00  0.00     0.738 A 
ATOM     10  N2   11 d         -15.043 203.526 118.659  0.00  0.00     0.129 NA
ATOM     11  C10  11 d         -14.895 204.393 119.694  0.00  0.00     0.738 A 
ATOM     12  N3   11 d         -15.890 204.527 120.610  0.00  0.00    -0.041 NA
ATOM     13  N4   11 d         -13.748 205.130 119.817  0.00  0.00    -0.230 N 
ATOM     14  N5   11 d         -16.337 201.924 117.499  0.00  0.00    -0.230 N 
ATOM     15  H8   11 d         -13.013 205.028 119.155  0.00  0.00     0.174 HD
ATOM     16  H9   11 d         -13.645 205.770 120.570  0.00  0.00     0.174 HD
ATOM     17  H10  11 d         -17.171 201.390 117.413  0.00  0.00     0.174 HD
ATOM     18  H11  11 d         -15.616 201.821 116.823  0.00  0.00     0.174 HD
ENDROOT
BRANCH   3  19
ATOM     19  O1   11 d         -17.118 205.934 122.596  0.00  0.00    -0.355 OA
ATOM     20  C4   11 d         -16.442 205.863 123.878  0.00  0.00     0.210 C 
ENDBRANCH   3  19
TORSDOF 1
ENDMDL
MODEL 20
REMARK VINA RESULT:      -5.3      2.712      5.314
REMARK  1 active torsions:
REMARK  status: ('A' for Active; 'I' for Inactive)
REMARK    1  A    between atoms: C3_3  and  O1_4 
REMARK       I    between atoms: C9_11  and  N5_16 
REMARK       I    between atoms: C10_13  and  N4_15 
ROOT
ATOM      1  C1   11 d         -12.459 206.879 115.138  0.00  0.00     0.200 A 
ATOM      2  C2   11 d         -11.427 207.339 116.114  0.00  0.00     0.046 A 
ATOM      3  C3   11 d         -10.263 208.054 115.714  0.00  0.00     0.082 A 
ATOM      4  C5   11 d          -9.358 208.520 116.685  0.00  0.00     0.038 A 
ATOM      5  C6   11 d          -9.551 208.231 118.041  0.00  0.00     0.003 A 
ATOM      6  C7   11 d         -10.669 207.493 118.443  0.00  0.00     0.001 A 
ATOM      7  C8   11 d         -11.602 207.058 117.491  0.00  0.00     0.018 A 
ATOM      8  N1   11 d         -13.634 206.342 115.583  0.00  0.00    -0.041 NA
ATOM      9  C9   11 d         -14.586 205.915 114.710  0.00  0.00     0.738 A 
ATOM     10  N2   11 d         -14.369 206.014 113.373  0.00  0.00     0.129 NA
ATOM     11  C10  11 d         -13.206 206.542 112.912  0.00  0.00     0.738 A 
ATOM     12  N3   11 d         -12.263 206.970 113.791  0.00  0.00    -0.041 NA
ATOM     13  N4   11 d         -12.980 206.641 111.565  0.00  0.00    -0.230 N 
ATOM     14  N5   11 d         -15.759 205.388 115.180  0.00  0.00    -0.230 N 
ATOM     15  H8   11 d         -13.663 206.320 110.918  0.00  0.00     0.174 HD
ATOM     16  H9   11 d         -12.132 207.035 111.230  0.00  0.00     0.174 HD
ATOM     17  H10  11 d         -15.919 205.317 116.158  0.00  0.00     0.174 HD
ATOM     18  H11  11 d         -16.456 205.074 114.545  0.00  0.00     0.174 HD
ENDROOT
BRANCH   3  19
ATOM     19  O1   11 d         -10.047 208.451 114.366  0.00  0.00    -0.355 OA
ATOM     20  C4   11 d          -9.014 209.469 114.313  0.00  0.00     0.210 C 
ENDBRANCH   3  19
TORSDOF 1
ENDMDL
