MODEL 1
REMARK VINA RESULT:      -9.6      0.000      0.000
REMARK  4 active torsions:
REMARK  status: ('A' for Active; 'I' for Inactive)
REMARK    1  A    between atoms: C4_6  and  S1_7 
REMARK    2  A    between atoms: S1_7  and  C5_8 
REMARK    3  A    between atoms: C5_8  and  C6_9 
REMARK       I    between atoms: C6_9  and  N2_11 
REMARK    4  A    between atoms: N2_11  and  C7_12 
ROOT
ATOM      1  S1   11 d         -11.369 205.765 118.690  0.00  0.00    -0.145 SA
ENDROOT
BRANCH   1   2
ATOM      2  C4   11 d         -13.142 205.883 118.179  0.00  0.00     0.149 A 
ATOM      3  C3   11 d         -13.605 204.620 117.451  0.00  0.00     0.128 A 
ATOM      4  C2   11 d         -14.775 204.154 118.246  0.00  0.00     0.232 A 
ATOM      5  N1   11 d         -15.069 204.952 119.384  0.00  0.00    -0.251 N 
ATOM      6  O1   11 d         -15.427 203.112 117.896  0.00  0.00    -0.273 OA
ATOM      7  C1   11 d         -14.084 205.976 119.341  0.00  0.00     0.245 A 
ATOM      8  C17  11 d         -16.161 204.757 120.391  0.00  0.00     0.045 A 
ATOM      9  O3   11 d         -13.986 206.923 120.195  0.00  0.00    -0.271 OA
ATOM     10  C18  11 d         -17.087 203.685 120.291  0.00  0.00     0.031 A 
ATOM     11  C22  11 d         -16.327 205.637 121.493  0.00  0.00     0.031 A 
ATOM     12  C19  11 d         -18.116 203.508 121.229  0.00  0.00     0.021 A 
ATOM     13  C20  11 d         -18.251 204.393 122.301  0.00  0.00     0.011 A 
ATOM     14 Br1   11 d         -19.664 204.148 123.591  0.00  0.00    -0.051 Br
ATOM     15  C21  11 d         -17.354 205.456 122.433  0.00  0.00     0.021 A 
ENDBRANCH   1   2
BRANCH   1  16
ATOM     16  C5   11 d         -10.748 207.177 117.674  0.00  0.00     0.177 C 
BRANCH  16  17
ATOM     17  C6   11 d         -11.541 207.429 116.418  0.00  0.00     0.231 C 
ATOM     18  O2   11 d         -12.356 208.415 116.374  0.00  0.00    -0.272 OA
ATOM     19  N2   11 d         -11.364 206.546 115.305  0.00  0.00    -0.327 N 
ATOM     20  H6   11 d         -10.659 205.747 115.441  0.00  0.00     0.169 HD
BRANCH  19  21
ATOM     21  C7   11 d         -12.035 206.609 113.987  0.00  0.00     0.035 A 
ATOM     22  C8   11 d         -13.445 206.537 113.985  0.00  0.00     0.042 A 
ATOM     23  C9   11 d         -14.179 206.562 112.785  0.00  0.00    -0.024 A 
ATOM     24  C10  11 d         -13.495 206.671 111.548  0.00  0.00    -0.026 A 
ATOM     25  C16  11 d         -15.586 206.473 112.797  0.00  0.00     0.012 A 
ATOM     26  C11  11 d         -12.093 206.755 111.539  0.00  0.00     0.014 A 
ATOM     27  C13  11 d         -14.227 206.692 110.343  0.00  0.00     0.012 A 
ATOM     28  C12  11 d         -11.371 206.724 112.742  0.00  0.00     0.030 A 
ATOM     29  C14  11 d         -15.626 206.602 110.369  0.00  0.00     0.001 A 
ATOM     30  C15  11 d         -16.304 206.493 111.592  0.00  0.00     0.001 A 
ENDBRANCH  19  21
ENDBRANCH  16  17
ENDBRANCH   1  16
TORSDOF 4
ENDMDL
MODEL 2
REMARK VINA RESULT:      -9.5      5.984      9.083
REMARK  4 active torsions:
REMARK  status: ('A' for Active; 'I' for Inactive)
REMARK    1  A    between atoms: C4_6  and  S1_7 
REMARK    2  A    between atoms: S1_7  and  C5_8 
REMARK    3  A    between atoms: C5_8  and  C6_9 
REMARK       I    between atoms: C6_9  and  N2_11 
REMARK    4  A    between atoms: N2_11  and  C7_12 
ROOT
ATOM      1  S1   11 d          -9.224 207.192 118.391  0.00  0.00    -0.145 SA
ENDROOT
BRANCH   1   2
ATOM      2  C4   11 d          -7.818 208.329 118.007  0.00  0.00     0.149 A 
ATOM      3  C3   11 d          -6.504 207.823 118.606  0.00  0.00     0.128 A 
ATOM      4  C2   11 d          -5.591 207.716 117.434  0.00  0.00     0.232 A 
ATOM      5  N1   11 d          -6.185 208.062 116.192  0.00  0.00    -0.251 N 
ATOM      6  O1   11 d          -4.381 207.335 117.584  0.00  0.00    -0.273 OA
ATOM      7  C1   11 d          -7.516 208.417 116.542  0.00  0.00     0.245 A 
ATOM      8  C17  11 d          -5.555 208.052 114.832  0.00  0.00     0.045 A 
ATOM      9  O3   11 d          -8.407 208.799 115.707  0.00  0.00    -0.271 OA
ATOM     10  C18  11 d          -4.197 207.684 114.641  0.00  0.00     0.031 A 
ATOM     11  C22  11 d          -6.283 208.415 113.668  0.00  0.00     0.031 A 
ATOM     12  C19  11 d          -3.603 207.684 113.369  0.00  0.00     0.021 A 
ATOM     13  C20  11 d          -4.348 208.047 112.245  0.00  0.00     0.011 A 
ATOM     14 Br1   11 d          -3.533 208.046 110.497  0.00  0.00    -0.051 Br
ATOM     15  C21  11 d          -5.690 208.410 112.396  0.00  0.00     0.021 A 
ENDBRANCH   1   2
BRANCH   1  16
ATOM     16  C5   11 d         -10.559 208.228 117.645  0.00  0.00     0.177 C 
BRANCH  16  17
ATOM     17  C6   11 d         -11.287 207.568 116.503  0.00  0.00     0.231 C 
ATOM     18  O2   11 d         -11.836 206.426 116.681  0.00  0.00    -0.272 OA
ATOM     19  N2   11 d         -11.336 208.239 115.239  0.00  0.00    -0.327 N 
ATOM     20  H6   11 d         -10.843 209.192 115.190  0.00  0.00     0.169 HD
BRANCH  19  21
ATOM     21  C7   11 d         -11.991 207.775 113.995  0.00  0.00     0.035 A 
ATOM     22  C8   11 d         -13.400 207.703 114.005  0.00  0.00     0.042 A 
ATOM     23  C9   11 d         -14.120 207.252 112.882  0.00  0.00    -0.024 A 
ATOM     24  C10  11 d         -13.419 206.868 111.711  0.00  0.00    -0.026 A 
ATOM     25  C16  11 d         -15.526 207.170 112.911  0.00  0.00     0.012 A 
ATOM     26  C11  11 d         -12.017 206.947 111.687  0.00  0.00     0.014 A 
ATOM     27  C13  11 d         -14.136 206.411 110.586  0.00  0.00     0.012 A 
ATOM     28  C12  11 d         -11.311 207.395 112.814  0.00  0.00     0.030 A 
ATOM     29  C14  11 d         -15.536 206.333 110.628  0.00  0.00     0.001 A 
ATOM     30  C15  11 d         -16.229 206.711 111.787  0.00  0.00     0.001 A 
ENDBRANCH  19  21
ENDBRANCH  16  17
ENDBRANCH   1  16
TORSDOF 4
ENDMDL
MODEL 3
REMARK VINA RESULT:      -9.4      5.511      8.235
REMARK  4 active torsions:
REMARK  status: ('A' for Active; 'I' for Inactive)
REMARK    1  A    between atoms: C4_6  and  S1_7 
REMARK    2  A    between atoms: S1_7  and  C5_8 
REMARK    3  A    between atoms: C5_8  and  C6_9 
REMARK       I    between atoms: C6_9  and  N2_11 
REMARK    4  A    between atoms: N2_11  and  C7_12 
ROOT
ATOM      1  S1   11 d         -10.736 208.230 118.297  0.00  0.00    -0.145 SA
ENDROOT
BRANCH   1   2
ATOM      2  C4   11 d          -9.187 207.701 119.157  0.00  0.00     0.149 A 
ATOM      3  C3   11 d          -8.198 207.049 118.187  0.00  0.00     0.128 A 
ATOM      4  C2   11 d          -6.961 207.865 118.333  0.00  0.00     0.232 A 
ATOM      5  N1   11 d          -7.074 208.949 119.243  0.00  0.00    -0.251 N 
ATOM      6  O1   11 d          -5.908 207.575 117.668  0.00  0.00    -0.273 OA
ATOM      7  C1   11 d          -8.408 208.849 119.723  0.00  0.00     0.245 A 
ATOM      8  C17  11 d          -6.029 209.960 119.609  0.00  0.00     0.045 A 
ATOM      9  O3   11 d          -8.931 209.644 120.576  0.00  0.00    -0.271 OA
ATOM     10  C18  11 d          -4.723 209.920 119.053  0.00  0.00     0.031 A 
ATOM     11  C22  11 d          -6.293 211.004 120.534  0.00  0.00     0.031 A 
ATOM     12  C19  11 d          -3.743 210.861 119.402  0.00  0.00     0.021 A 
ATOM     13  C20  11 d          -4.035 211.876 120.317  0.00  0.00     0.011 A 
ATOM     14 Br1   11 d          -2.688 213.170 120.796  0.00  0.00    -0.051 Br
ATOM     15  C21  11 d          -5.312 211.948 120.880  0.00  0.00     0.021 A 
ENDBRANCH   1   2
BRANCH   1  16
ATOM     16  C5   11 d         -11.495 206.552 118.153  0.00  0.00     0.177 C 
BRANCH  16  17
ATOM     17  C6   11 d         -11.962 206.203 116.763  0.00  0.00     0.231 C 
ATOM     18  O2   11 d         -12.308 205.000 116.498  0.00  0.00    -0.272 OA
ATOM     19  N2   11 d         -11.996 207.234 115.770  0.00  0.00    -0.327 N 
ATOM     20  H6   11 d         -11.683 208.211 116.091  0.00  0.00     0.169 HD
BRANCH  19  21
ATOM     21  C7   11 d         -12.416 207.112 114.356  0.00  0.00     0.035 A 
ATOM     22  C8   11 d         -13.804 207.104 114.101  0.00  0.00     0.042 A 
ATOM     23  C9   11 d         -14.309 206.968 112.795  0.00  0.00    -0.024 A 
ATOM     24  C10  11 d         -13.410 206.845 111.706  0.00  0.00    -0.026 A 
ATOM     25  C16  11 d         -15.698 206.945 112.557  0.00  0.00     0.012 A 
ATOM     26  C11  11 d         -12.026 206.864 111.947  0.00  0.00     0.014 A 
ATOM     27  C13  11 d         -13.912 206.704 110.397  0.00  0.00     0.012 A 
ATOM     28  C12  11 d         -11.534 206.995 113.255  0.00  0.00     0.030 A 
ATOM     29  C14  11 d         -15.297 206.681 110.173  0.00  0.00     0.001 A 
ATOM     30  C15  11 d         -16.187 206.802 111.250  0.00  0.00     0.001 A 
ENDBRANCH  19  21
ENDBRANCH  16  17
ENDBRANCH   1  16
TORSDOF 4
ENDMDL
MODEL 4
REMARK VINA RESULT:      -9.3      3.779     10.172
REMARK  4 active torsions:
REMARK  status: ('A' for Active; 'I' for Inactive)
REMARK    1  A    between atoms: C4_6  and  S1_7 
REMARK    2  A    between atoms: S1_7  and  C5_8 
REMARK    3  A    between atoms: C5_8  and  C6_9 
REMARK       I    between atoms: C6_9  and  N2_11 
REMARK    4  A    between atoms: N2_11  and  C7_12 
ROOT
ATOM      1  S1   11 d         -14.806 203.012 117.312  0.00  0.00    -0.145 SA
ENDROOT
BRANCH   1   2
ATOM      2  C4   11 d         -14.513 204.815 117.023  0.00  0.00     0.149 A 
ATOM      3  C3   11 d         -13.208 205.284 117.669  0.00  0.00     0.128 A 
ATOM      4  C2   11 d         -12.438 205.872 116.537  0.00  0.00     0.232 A 
ATOM      5  N1   11 d         -13.091 205.795 115.278  0.00  0.00    -0.251 N 
ATOM      6  O1   11 d         -11.285 206.388 116.732  0.00  0.00    -0.273 OA
ATOM      7  C1   11 d         -14.324 205.155 115.576  0.00  0.00     0.245 A 
ATOM      8  C17  11 d         -12.593 206.277 113.949  0.00  0.00     0.045 A 
ATOM      9  O3   11 d         -15.228 204.887 114.712  0.00  0.00    -0.271 OA
ATOM     10  C18  11 d         -11.334 206.919 113.811  0.00  0.00     0.031 A 
ATOM     11  C22  11 d         -13.358 206.120 112.763  0.00  0.00     0.031 A 
ATOM     12  C19  11 d         -10.872 207.378 112.567  0.00  0.00     0.021 A 
ATOM     13  C20  11 d         -11.650 207.208 111.420  0.00  0.00     0.011 A 
ATOM     14 Br1   11 d         -11.015 207.838 109.712  0.00  0.00    -0.051 Br
ATOM     15  C21  11 d         -12.893 206.576 111.520  0.00  0.00     0.021 A 
ENDBRANCH   1   2
BRANCH   1  16
ATOM     16  C5   11 d         -16.639 203.114 117.521  0.00  0.00     0.177 C 
BRANCH  16  17
ATOM     17  C6   11 d         -17.100 203.062 118.955  0.00  0.00     0.231 C 
ATOM     18  O2   11 d         -16.462 202.340 119.797  0.00  0.00    -0.272 OA
ATOM     19  N2   11 d         -18.253 203.821 119.334  0.00  0.00    -0.327 N 
ATOM     20  H6   11 d         -18.721 204.393 118.554  0.00  0.00     0.169 HD
BRANCH  19  21
ATOM     21  C7   11 d         -18.873 203.914 120.675  0.00  0.00     0.035 A 
ATOM     22  C8   11 d         -18.437 204.966 121.508  0.00  0.00     0.042 A 
ATOM     23  C9   11 d         -18.943 205.129 122.811  0.00  0.00    -0.024 A 
ATOM     24  C10  11 d         -19.920 204.225 123.300  0.00  0.00    -0.026 A 
ATOM     25  C16  11 d         -18.487 206.174 123.638  0.00  0.00     0.012 A 
ATOM     26  C11  11 d         -20.370 203.181 122.474  0.00  0.00     0.014 A 
ATOM     27  C13  11 d         -20.427 204.382 124.606  0.00  0.00     0.012 A 
ATOM     28  C12  11 d         -19.854 203.026 121.179  0.00  0.00     0.030 A 
ATOM     29  C14  11 d         -19.963 205.426 125.419  0.00  0.00     0.001 A 
ATOM     30  C15  11 d         -18.996 206.320 124.936  0.00  0.00     0.001 A 
ENDBRANCH  19  21
ENDBRANCH  16  17
ENDBRANCH   1  16
TORSDOF 4
ENDMDL
MODEL 5
REMARK VINA RESULT:      -9.3      2.284      3.506
REMARK  4 active torsions:
REMARK  status: ('A' for Active; 'I' for Inactive)
REMARK    1  A    between atoms: C4_6  and  S1_7 
REMARK    2  A    between atoms: S1_7  and  C5_8 
REMARK    3  A    between atoms: C5_8  and  C6_9 
REMARK       I    between atoms: C6_9  and  N2_11 
REMARK    4  A    between atoms: N2_11  and  C7_12 
ROOT
ATOM      1  S1   11 d         -14.986 206.708 120.252  0.00  0.00    -0.145 SA
ENDROOT
BRANCH   1   2
ATOM      2  C4   11 d         -15.146 205.367 121.515  0.00  0.00     0.149 A 
ATOM      3  C3   11 d         -15.193 205.934 122.936  0.00  0.00     0.128 A 
ATOM      4  C2   11 d         -16.470 205.406 123.491  0.00  0.00     0.232 A 
ATOM      5  N1   11 d         -17.224 204.616 122.584  0.00  0.00    -0.251 N 
ATOM      6  O1   11 d         -16.818 205.674 124.691  0.00  0.00    -0.273 OA
ATOM      7  C1   11 d         -16.431 204.606 121.405  0.00  0.00     0.245 A 
ATOM      8  C17  11 d         -18.547 203.950 122.818  0.00  0.00     0.045 A 
ATOM      9  O3   11 d         -16.747 203.997 120.325  0.00  0.00    -0.271 OA
ATOM     10  C18  11 d         -19.217 204.039 124.067  0.00  0.00     0.031 A 
ATOM     11  C22  11 d         -19.193 203.195 121.804  0.00  0.00     0.031 A 
ATOM     12  C19  11 d         -20.451 203.408 124.290  0.00  0.00     0.021 A 
ATOM     13  C20  11 d         -21.059 202.672 123.270  0.00  0.00     0.011 A 
ATOM     14 Br1   11 d         -22.755 201.806 123.576  0.00  0.00    -0.051 Br
ATOM     15  C21  11 d         -20.429 202.568 122.027  0.00  0.00     0.021 A 
ENDBRANCH   1   2
BRANCH   1  16
ATOM     16  C5   11 d         -13.850 205.805 119.109  0.00  0.00     0.177 C 
BRANCH  16  17
ATOM     17  C6   11 d         -13.796 206.376 117.715  0.00  0.00     0.231 C 
ATOM     18  O2   11 d         -13.645 207.637 117.555  0.00  0.00    -0.272 OA
ATOM     19  N2   11 d         -13.925 205.485 116.602  0.00  0.00    -0.327 N 
ATOM     20  H6   11 d         -14.051 204.445 116.840  0.00  0.00     0.169 HD
BRANCH  19  21
ATOM     21  C7   11 d         -13.901 205.828 115.163  0.00  0.00     0.035 A 
ATOM     22  C8   11 d         -15.145 205.885 114.499  0.00  0.00     0.042 A 
ATOM     23  C9   11 d         -15.232 206.178 113.125  0.00  0.00    -0.024 A 
ATOM     24  C10  11 d         -14.047 206.431 112.388  0.00  0.00    -0.026 A 
ATOM     25  C16  11 d         -16.479 206.216 112.472  0.00  0.00     0.012 A 
ATOM     26  C11  11 d         -12.805 206.389 113.041  0.00  0.00     0.014 A 
ATOM     27  C13  11 d         -14.130 206.721 111.011  0.00  0.00     0.012 A 
ATOM     28  C12  11 d         -12.731 206.091 114.410  0.00  0.00     0.030 A 
ATOM     29  C14  11 d         -15.378 206.754 110.372  0.00  0.00     0.001 A 
ATOM     30  C15  11 d         -16.550 206.502 111.101  0.00  0.00     0.001 A 
ENDBRANCH  19  21
ENDBRANCH  16  17
ENDBRANCH   1  16
TORSDOF 4
ENDMDL
MODEL 6
REMARK VINA RESULT:      -9.1      3.716     10.021
REMARK  4 active torsions:
REMARK  status: ('A' for Active; 'I' for Inactive)
REMARK    1  A    between atoms: C4_6  and  S1_7 
REMARK    2  A    between atoms: S1_7  and  C5_8 
REMARK    3  A    between atoms: C5_8  and  C6_9 
REMARK       I    between atoms: C6_9  and  N2_11 
REMARK    4  A    between atoms: N2_11  and  C7_12 
ROOT
ATOM      1  S1   11 d         -13.833 205.819 119.019  0.00  0.00    -0.145 SA
ENDROOT
BRANCH   1   2
ATOM      2  C4   11 d         -13.396 207.378 118.126  0.00  0.00     0.149 A 
ATOM      3  C3   11 d         -11.937 207.774 118.364  0.00  0.00     0.128 A 
ATOM      4  C2   11 d         -11.361 207.862 116.994  0.00  0.00     0.232 A 
ATOM      5  N1   11 d         -12.270 207.542 115.951  0.00  0.00    -0.251 N 
ATOM      6  O1   11 d         -10.140 208.199 116.822  0.00  0.00    -0.273 OA
ATOM      7  C1   11 d         -13.479 207.246 116.636  0.00  0.00     0.245 A 
ATOM      8  C17  11 d         -12.012 207.522 114.475  0.00  0.00     0.045 A 
ATOM      9  O3   11 d         -14.571 206.905 116.064  0.00  0.00    -0.271 OA
ATOM     10  C18  11 d         -10.743 207.861 113.933  0.00  0.00     0.031 A 
ATOM     11  C22  11 d         -13.023 207.167 113.544  0.00  0.00     0.031 A 
ATOM     12  C19  11 d         -10.504 207.851 112.550  0.00  0.00     0.021 A 
ATOM     13  C20  11 d         -11.522 207.497 111.662  0.00  0.00     0.011 A 
ATOM     14 Br1   11 d         -11.192 207.483 109.762  0.00  0.00    -0.051 Br
ATOM     15  C21  11 d         -12.781 207.153 112.161  0.00  0.00     0.021 A 
ENDBRANCH   1   2
BRANCH   1  16
ATOM     16  C5   11 d         -14.864 206.597 120.339  0.00  0.00     0.177 C 
BRANCH  16  17
ATOM     17  C6   11 d         -15.832 205.653 121.004  0.00  0.00     0.231 C 
ATOM     18  O2   11 d         -15.443 204.949 121.999  0.00  0.00    -0.272 OA
ATOM     19  N2   11 d         -17.166 205.564 120.493  0.00  0.00    -0.327 N 
ATOM     20  H6   11 d         -17.395 206.195 119.653  0.00  0.00     0.169 HD
BRANCH  19  21
ATOM     21  C7   11 d         -18.268 204.710 120.990  0.00  0.00     0.035 A 
ATOM     22  C8   11 d         -18.533 204.752 122.376  0.00  0.00     0.042 A 
ATOM     23  C9   11 d         -19.543 203.960 122.954  0.00  0.00    -0.024 A 
ATOM     24  C10  11 d         -20.320 203.107 122.131  0.00  0.00    -0.026 A 
ATOM     25  C16  11 d         -19.786 204.000 124.341  0.00  0.00     0.012 A 
ATOM     26  C11  11 d         -20.073 203.067 120.749  0.00  0.00     0.014 A 
ATOM     27  C13  11 d         -21.329 202.309 122.707  0.00  0.00     0.012 A 
ATOM     28  C12  11 d         -19.060 203.857 120.184  0.00  0.00     0.030 A 
ATOM     29  C14  11 d         -21.560 202.356 124.090  0.00  0.00     0.001 A 
ATOM     30  C15  11 d         -20.791 203.200 124.905  0.00  0.00     0.001 A 
ENDBRANCH  19  21
ENDBRANCH  16  17
ENDBRANCH   1  16
TORSDOF 4
ENDMDL
MODEL 7
REMARK VINA RESULT:      -8.9      4.010     10.069
REMARK  4 active torsions:
REMARK  status: ('A' for Active; 'I' for Inactive)
REMARK    1  A    between atoms: C4_6  and  S1_7 
REMARK    2  A    between atoms: S1_7  and  C5_8 
REMARK    3  A    between atoms: C5_8  and  C6_9 
REMARK       I    between atoms: C6_9  and  N2_11 
REMARK    4  A    between atoms: N2_11  and  C7_12 
ROOT
ATOM      1  S1   11 d         -14.528 203.325 117.387  0.00  0.00    -0.145 SA
ENDROOT
BRANCH   1   2
ATOM      2  C4   11 d         -14.519 205.170 117.263  0.00  0.00     0.149 A 
ATOM      3  C3   11 d         -13.850 205.813 118.480  0.00  0.00     0.128 A 
ATOM      4  C2   11 d         -12.761 206.643 117.893  0.00  0.00     0.232 A 
ATOM      5  N1   11 d         -12.659 206.567 116.479  0.00  0.00    -0.251 N 
ATOM      6  O1   11 d         -12.003 207.347 118.644  0.00  0.00    -0.273 OA
ATOM      7  C1   11 d         -13.706 205.679 116.113  0.00  0.00     0.245 A 
ATOM      8  C17  11 d         -11.676 207.261 115.586  0.00  0.00     0.045 A 
ATOM      9  O3   11 d         -13.973 205.330 114.911  0.00  0.00    -0.271 OA
ATOM     10  C18  11 d         -10.687 208.140 116.102  0.00  0.00     0.031 A 
ATOM     11  C22  11 d         -11.688 207.078 114.177  0.00  0.00     0.031 A 
ATOM     12  C19  11 d          -9.773 208.797 115.265  0.00  0.00     0.021 A 
ATOM     13  C20  11 d          -9.812 208.595 113.883  0.00  0.00     0.011 A 
ATOM     14 Br1   11 d          -8.555 209.497 112.733  0.00  0.00    -0.051 Br
ATOM     15  C21  11 d         -10.770 207.733 113.341  0.00  0.00     0.021 A 
ENDBRANCH   1   2
BRANCH   1  16
ATOM     16  C5   11 d         -16.357 203.119 117.534  0.00  0.00     0.177 C 
BRANCH  16  17
ATOM     17  C6   11 d         -16.850 202.970 118.950  0.00  0.00     0.231 C 
ATOM     18  O2   11 d         -16.349 202.062 119.700  0.00  0.00    -0.272 OA
ATOM     19  N2   11 d         -17.876 203.852 119.417  0.00  0.00    -0.327 N 
ATOM     20  H6   11 d         -18.233 204.580 118.712  0.00  0.00     0.169 HD
BRANCH  19  21
ATOM     21  C7   11 d         -18.500 203.881 120.759  0.00  0.00     0.035 A 
ATOM     22  C8   11 d         -19.469 202.892 121.034  0.00  0.00     0.042 A 
ATOM     23  C9   11 d         -20.140 202.846 122.270  0.00  0.00    -0.024 A 
ATOM     24  C10  11 d         -19.835 203.805 123.268  0.00  0.00    -0.026 A 
ATOM     25  C16  11 d         -21.116 201.862 122.525  0.00  0.00     0.012 A 
ATOM     26  C11  11 d         -18.865 204.787 123.009  0.00  0.00     0.014 A 
ATOM     27  C13  11 d         -20.509 203.765 124.506  0.00  0.00     0.012 A 
ATOM     28  C12  11 d         -18.205 204.826 121.771  0.00  0.00     0.030 A 
ATOM     29  C14  11 d         -21.480 202.781 124.746  0.00  0.00     0.001 A 
ATOM     30  C15  11 d         -21.782 201.832 123.759  0.00  0.00     0.001 A 
ENDBRANCH  19  21
ENDBRANCH  16  17
ENDBRANCH   1  16
TORSDOF 4
ENDMDL
MODEL 8
REMARK VINA RESULT:      -8.8      1.918      3.476
REMARK  4 active torsions:
REMARK  status: ('A' for Active; 'I' for Inactive)
REMARK    1  A    between atoms: C4_6  and  S1_7 
REMARK    2  A    between atoms: S1_7  and  C5_8 
REMARK    3  A    between atoms: C5_8  and  C6_9 
REMARK       I    between atoms: C6_9  and  N2_11 
REMARK    4  A    between atoms: N2_11  and  C7_12 
ROOT
ATOM      1  S1   11 d         -14.291 206.707 119.177  0.00  0.00    -0.145 SA
ENDROOT
BRANCH   1   2
ATOM      2  C4   11 d         -14.420 205.549 120.613  0.00  0.00     0.149 A 
ATOM      3  C3   11 d         -14.477 206.303 121.943  0.00  0.00     0.128 A 
ATOM      4  C2   11 d         -15.742 205.830 122.571  0.00  0.00     0.232 A 
ATOM      5  N1   11 d         -16.481 204.907 121.784  0.00  0.00    -0.251 N 
ATOM      6  O1   11 d         -16.094 206.253 123.724  0.00  0.00    -0.273 OA
ATOM      7  C1   11 d         -15.689 204.752 120.614  0.00  0.00     0.245 A 
ATOM      8  C17  11 d         -17.788 204.252 122.112  0.00  0.00     0.045 A 
ATOM      9  O3   11 d         -15.993 203.995 119.629  0.00  0.00    -0.271 OA
ATOM     10  C18  11 d         -18.458 204.497 123.340  0.00  0.00     0.031 A 
ATOM     11  C22  11 d         -18.419 203.352 121.214  0.00  0.00     0.031 A 
ATOM     12  C19  11 d         -19.679 203.877 123.652  0.00  0.00     0.021 A 
ATOM     13  C20  11 d         -20.272 202.995 122.746  0.00  0.00     0.011 A 
ATOM     14 Br1   11 d         -21.949 202.144 123.174  0.00  0.00    -0.051 Br
ATOM     15  C21  11 d         -19.642 202.735 121.526  0.00  0.00     0.021 A 
ENDBRANCH   1   2
BRANCH   1  16
ATOM     16  C5   11 d         -12.703 206.050 118.501  0.00  0.00     0.177 C 
BRANCH  16  17
ATOM     17  C6   11 d         -12.360 206.560 117.125  0.00  0.00     0.231 C 
ATOM     18  O2   11 d         -11.665 207.627 117.003  0.00  0.00    -0.272 OA
ATOM     19  N2   11 d         -12.833 205.833 115.986  0.00  0.00    -0.327 N 
ATOM     20  H6   11 d         -13.411 204.952 116.192  0.00  0.00     0.169 HD
BRANCH  19  21
ATOM     21  C7   11 d         -12.616 206.153 114.557  0.00  0.00     0.035 A 
ATOM     22  C8   11 d         -11.448 206.878 114.236  0.00  0.00     0.042 A 
ATOM     23  C9   11 d         -11.159 207.255 112.911  0.00  0.00    -0.024 A 
ATOM     24  C10  11 d         -12.052 206.894 111.870  0.00  0.00    -0.026 A 
ATOM     25  C16  11 d          -9.997 207.992 112.607  0.00  0.00     0.012 A 
ATOM     26  C11  11 d         -13.211 206.162 112.177  0.00  0.00     0.014 A 
ATOM     27  C13  11 d         -11.768 207.274 110.543  0.00  0.00     0.012 A 
ATOM     28  C12  11 d         -13.491 205.797 113.503  0.00  0.00     0.030 A 
ATOM     29  C14  11 d         -10.609 208.008 110.254  0.00  0.00     0.001 A 
ATOM     30  C15  11 d          -9.725 208.366 111.283  0.00  0.00     0.001 A 
ENDBRANCH  19  21
ENDBRANCH  16  17
ENDBRANCH   1  16
TORSDOF 4
ENDMDL
MODEL 9
REMARK VINA RESULT:      -8.7      5.625      7.255
REMARK  4 active torsions:
REMARK  status: ('A' for Active; 'I' for Inactive)
REMARK    1  A    between atoms: C4_6  and  S1_7 
REMARK    2  A    between atoms: S1_7  and  C5_8 
REMARK    3  A    between atoms: C5_8  and  C6_9 
REMARK       I    between atoms: C6_9  and  N2_11 
REMARK    4  A    between atoms: N2_11  and  C7_12 
ROOT
ATOM      1  S1   11 d          -5.287 210.021 116.466  0.00  0.00    -0.145 SA
ENDROOT
BRANCH   1   2
ATOM      2  C4   11 d          -5.525 208.192 116.591  0.00  0.00     0.149 A 
ATOM      3  C3   11 d          -4.390 207.528 117.375  0.00  0.00     0.128 A 
ATOM      4  C2   11 d          -5.087 206.813 118.479  0.00  0.00     0.232 A 
ATOM      5  N1   11 d          -6.497 206.978 118.491  0.00  0.00    -0.251 N 
ATOM      6  O1   11 d          -4.425 206.122 119.327  0.00  0.00    -0.273 OA
ATOM      7  C1   11 d          -6.748 207.809 117.366  0.00  0.00     0.245 A 
ATOM      8  C17  11 d          -7.486 206.408 119.463  0.00  0.00     0.045 A 
ATOM      9  O3   11 d          -7.909 208.208 117.005  0.00  0.00    -0.271 OA
ATOM     10  C18  11 d          -7.081 205.573 120.537  0.00  0.00     0.031 A 
ATOM     11  C22  11 d          -8.877 206.671 119.354  0.00  0.00     0.031 A 
ATOM     12  C19  11 d          -8.007 205.032 121.442  0.00  0.00     0.021 A 
ATOM     13  C20  11 d          -9.369 205.310 121.306  0.00  0.00     0.011 A 
ATOM     14 Br1   11 d         -10.642 204.567 122.550  0.00  0.00    -0.051 Br
ATOM     15  C21  11 d          -9.802 206.132 120.262  0.00  0.00     0.021 A 
ENDBRANCH   1   2
BRANCH   1  16
ATOM     16  C5   11 d          -5.401 210.137 114.627  0.00  0.00     0.177 C 
BRANCH  16  17
ATOM     17  C6   11 d          -6.474 209.271 114.019  0.00  0.00     0.231 C 
ATOM     18  O2   11 d          -6.142 208.237 113.342  0.00  0.00    -0.272 OA
ATOM     19  N2   11 d          -7.845 209.637 114.213  0.00  0.00    -0.327 N 
ATOM     20  H6   11 d          -8.020 210.523 114.794  0.00  0.00     0.169 HD
BRANCH  19  21
ATOM     21  C7   11 d          -9.047 208.936 113.709  0.00  0.00     0.035 A 
ATOM     22  C8   11 d          -9.178 208.820 112.309  0.00  0.00     0.042 A 
ATOM     23  C9   11 d         -10.295 208.194 111.725  0.00  0.00    -0.024 A 
ATOM     24  C10  11 d         -11.310 207.657 112.558  0.00  0.00    -0.026 A 
ATOM     25  C16  11 d         -10.421 208.099 110.325  0.00  0.00     0.012 A 
ATOM     26  C11  11 d         -11.184 207.757 113.953  0.00  0.00     0.014 A 
ATOM     27  C13  11 d         -12.433 207.033 111.977  0.00  0.00     0.012 A 
ATOM     28  C12  11 d         -10.067 208.388 114.523  0.00  0.00     0.030 A 
ATOM     29  C14  11 d         -12.547 206.947 110.582  0.00  0.00     0.001 A 
ATOM     30  C15  11 d         -11.543 207.478 109.758  0.00  0.00     0.001 A 
ENDBRANCH  19  21
ENDBRANCH  16  17
ENDBRANCH   1  16
TORSDOF 4
ENDMDL
MODEL 10
REMARK VINA RESULT:      -8.5      5.338      7.905
REMARK  4 active torsions:
REMARK  status: ('A' for Active; 'I' for Inactive)
REMARK    1  A    between atoms: C4_6  and  S1_7 
REMARK    2  A    between atoms: S1_7  and  C5_8 
REMARK    3  A    between atoms: C5_8  and  C6_9 
REMARK       I    between atoms: C6_9  and  N2_11 
REMARK    4  A    between atoms: N2_11  and  C7_12 
ROOT
ATOM      1  S1   11 d         -10.109 208.311 117.972  0.00  0.00    -0.145 SA
ENDROOT
BRANCH   1   2
ATOM      2  C4   11 d          -8.789 207.931 119.209  0.00  0.00     0.149 A 
ATOM      3  C3   11 d          -9.122 206.678 120.023  0.00  0.00     0.128 A 
ATOM      4  C2   11 d          -7.951 205.785 119.802  0.00  0.00     0.232 A 
ATOM      5  N1   11 d          -6.959 206.316 118.936  0.00  0.00    -0.251 N 
ATOM      6  O1   11 d          -7.891 204.639 120.366  0.00  0.00    -0.273 OA
ATOM      7  C1   11 d          -7.472 207.593 118.580  0.00  0.00     0.245 A 
ATOM      8  C17  11 d          -5.675 205.678 118.501  0.00  0.00     0.045 A 
ATOM      9  O3   11 d          -6.882 208.419 117.802  0.00  0.00    -0.271 OA
ATOM     10  C18  11 d          -5.288 204.391 118.958  0.00  0.00     0.031 A 
ATOM     11  C22  11 d          -4.779 206.331 117.613  0.00  0.00     0.031 A 
ATOM     12  C19  11 d          -4.081 203.796 118.558  0.00  0.00     0.021 A 
ATOM     13  C20  11 d          -3.222 204.467 117.684  0.00  0.00     0.011 A 
ATOM     14 Br1   11 d          -1.564 203.650 117.133  0.00  0.00    -0.051 Br
ATOM     15  C21  11 d          -3.574 205.734 117.211  0.00  0.00     0.021 A 
ENDBRANCH   1   2
BRANCH   1  16
ATOM     16  C5   11 d         -10.986 206.688 118.074  0.00  0.00     0.177 C 
BRANCH  16  17
ATOM     17  C6   11 d         -11.690 206.287 116.804  0.00  0.00     0.231 C 
ATOM     18  O2   11 d         -12.280 205.153 116.742  0.00  0.00    -0.272 OA
ATOM     19  N2   11 d         -11.673 207.189 115.693  0.00  0.00    -0.327 N 
ATOM     20  H6   11 d         -11.149 208.115 115.843  0.00  0.00     0.169 HD
BRANCH  19  21
ATOM     21  C7   11 d         -12.294 206.997 114.363  0.00  0.00     0.035 A 
ATOM     22  C8   11 d         -13.704 206.931 114.322  0.00  0.00     0.042 A 
ATOM     23  C9   11 d         -14.393 206.726 113.112  0.00  0.00    -0.024 A 
ATOM     24  C10  11 d         -13.663 206.591 111.905  0.00  0.00    -0.026 A 
ATOM     25  C16  11 d         -15.800 206.646 113.088  0.00  0.00     0.012 A 
ATOM     26  C11  11 d         -12.261 206.667 111.933  0.00  0.00     0.014 A 
ATOM     27  C13  11 d         -14.350 206.381 110.692  0.00  0.00     0.012 A 
ATOM     28  C12  11 d         -11.584 206.868 113.146  0.00  0.00     0.030 A 
ATOM     29  C14  11 d         -15.750 206.302 110.681  0.00  0.00     0.001 A 
ATOM     30  C15  11 d         -16.473 206.434 111.876  0.00  0.00     0.001 A 
ENDBRANCH  19  21
ENDBRANCH  16  17
ENDBRANCH   1  16
TORSDOF 4
ENDMDL
MODEL 11
REMARK VINA RESULT:      -8.5      2.332      3.174
REMARK  4 active torsions:
REMARK  status: ('A' for Active; 'I' for Inactive)
REMARK    1  A    between atoms: C4_6  and  S1_7 
REMARK    2  A    between atoms: S1_7  and  C5_8 
REMARK    3  A    between atoms: C5_8  and  C6_9 
REMARK       I    between atoms: C6_9  and  N2_11 
REMARK    4  A    between atoms: N2_11  and  C7_12 
ROOT
ATOM      1  S1   11 d         -14.229 206.304 119.643  0.00  0.00    -0.145 SA
ENDROOT
BRANCH   1   2
ATOM      2  C4   11 d         -14.259 204.860 120.797  0.00  0.00     0.149 A 
ATOM      3  C3   11 d         -13.234 205.016 121.923  0.00  0.00     0.128 A 
ATOM      4  C2   11 d         -14.047 204.910 123.166  0.00  0.00     0.232 A 
ATOM      5  N1   11 d         -15.440 204.739 122.946  0.00  0.00    -0.251 N 
ATOM      6  O1   11 d         -13.491 204.977 124.315  0.00  0.00    -0.273 OA
ATOM      7  C1   11 d         -15.558 204.719 121.530  0.00  0.00     0.245 A 
ATOM      8  C17  11 d         -16.527 204.610 123.969  0.00  0.00     0.045 A 
ATOM      9  O3   11 d         -16.660 204.581 120.897  0.00  0.00    -0.271 OA
ATOM     10  C18  11 d         -16.249 204.632 125.362  0.00  0.00     0.031 A 
ATOM     11  C22  11 d         -17.888 204.455 123.597  0.00  0.00     0.031 A 
ATOM     12  C19  11 d         -17.266 204.503 126.320  0.00  0.00     0.021 A 
ATOM     13  C20  11 d         -18.596 204.351 125.919  0.00  0.00     0.011 A 
ATOM     14 Br1   11 d         -19.993 204.173 127.236  0.00  0.00    -0.051 Br
ATOM     15  C21  11 d         -18.905 204.329 124.557  0.00  0.00     0.021 A 
ENDBRANCH   1   2
BRANCH   1  16
ATOM     16  C5   11 d         -13.342 205.466 118.257  0.00  0.00     0.177 C 
BRANCH  16  17
ATOM     17  C6   11 d         -13.529 206.127 116.915  0.00  0.00     0.231 C 
ATOM     18  O2   11 d         -14.159 207.238 116.842  0.00  0.00    -0.272 OA
ATOM     19  N2   11 d         -12.998 205.484 115.752  0.00  0.00    -0.327 N 
ATOM     20  H6   11 d         -12.487 204.553 115.917  0.00  0.00     0.169 HD
BRANCH  19  21
ATOM     21  C7   11 d         -13.067 205.953 114.350  0.00  0.00     0.035 A 
ATOM     22  C8   11 d         -14.339 205.955 113.739  0.00  0.00     0.042 A 
ATOM     23  C9   11 d         -14.511 206.359 112.402  0.00  0.00    -0.024 A 
ATOM     24  C10  11 d         -13.387 206.781 111.649  0.00  0.00    -0.026 A 
ATOM     25  C16  11 d         -15.785 206.341 111.801  0.00  0.00     0.012 A 
ATOM     26  C11  11 d         -12.118 206.794 112.250  0.00  0.00     0.014 A 
ATOM     27  C13  11 d         -13.554 207.181 110.308  0.00  0.00     0.012 A 
ATOM     28  C12  11 d         -11.958 206.385 113.583  0.00  0.00     0.030 A 
ATOM     29  C14  11 d         -14.828 207.158 109.720  0.00  0.00     0.001 A 
ATOM     30  C15  11 d         -15.940 206.739 110.465  0.00  0.00     0.001 A 
ENDBRANCH  19  21
ENDBRANCH  16  17
ENDBRANCH   1  16
TORSDOF 4
ENDMDL
MODEL 12
REMARK VINA RESULT:      -8.4      3.618      9.559
REMARK  4 active torsions:
REMARK  status: ('A' for Active; 'I' for Inactive)
REMARK    1  A    between atoms: C4_6  and  S1_7 
REMARK    2  A    between atoms: S1_7  and  C5_8 
REMARK    3  A    between atoms: C5_8  and  C6_9 
REMARK       I    between atoms: C6_9  and  N2_11 
REMARK    4  A    between atoms: N2_11  and  C7_12 
ROOT
ATOM      1  S1   11 d         -13.644 206.499 119.173  0.00  0.00    -0.145 SA
ENDROOT
BRANCH   1   2
ATOM      2  C4   11 d         -13.389 205.275 117.811  0.00  0.00     0.149 A 
ATOM      3  C3   11 d         -14.714 204.871 117.160  0.00  0.00     0.128 A 
ATOM      4  C2   11 d         -14.520 205.197 115.720  0.00  0.00     0.232 A 
ATOM      5  N1   11 d         -13.261 205.775 115.411  0.00  0.00    -0.251 N 
ATOM      6  O1   11 d         -15.445 204.960 114.869  0.00  0.00    -0.273 OA
ATOM      7  C1   11 d         -12.596 205.826 116.666  0.00  0.00     0.245 A 
ATOM      8  C17  11 d         -12.755 206.225 114.074  0.00  0.00     0.045 A 
ATOM      9  O3   11 d         -11.415 206.284 116.841  0.00  0.00    -0.271 OA
ATOM     10  C18  11 d         -13.537 206.093 112.896  0.00  0.00     0.031 A 
ATOM     11  C22  11 d         -11.466 206.801 113.918  0.00  0.00     0.031 A 
ATOM     12  C19  11 d         -13.059 206.507 111.642  0.00  0.00     0.021 A 
ATOM     13  C20  11 d         -11.786 207.069 111.524  0.00  0.00     0.011 A 
ATOM     14 Br1   11 d         -11.131 207.637 109.802  0.00  0.00    -0.051 Br
ATOM     15  C21  11 d         -10.991 207.218 112.664  0.00  0.00     0.021 A 
ENDBRANCH   1   2
BRANCH   1  16
ATOM     16  C5   11 d         -13.024 205.436 120.550  0.00  0.00     0.177 C 
BRANCH  16  17
ATOM     17  C6   11 d         -14.110 204.848 121.413  0.00  0.00     0.231 C 
ATOM     18  O2   11 d         -13.847 203.844 122.161  0.00  0.00    -0.272 OA
ATOM     19  N2   11 d         -15.417 205.431 121.366  0.00  0.00    -0.327 N 
ATOM     20  H6   11 d         -15.537 206.270 120.705  0.00  0.00     0.169 HD
BRANCH  19  21
ATOM     21  C7   11 d         -16.619 205.016 122.123  0.00  0.00     0.035 A 
ATOM     22  C8   11 d         -17.549 204.199 121.446  0.00  0.00     0.042 A 
ATOM     23  C9   11 d         -18.737 203.769 122.066  0.00  0.00    -0.024 A 
ATOM     24  C10  11 d         -19.007 204.156 123.403  0.00  0.00    -0.026 A 
ATOM     25  C16  11 d         -19.664 202.966 121.373  0.00  0.00     0.012 A 
ATOM     26  C11  11 d         -18.083 204.960 124.090  0.00  0.00     0.014 A 
ATOM     27  C13  11 d         -20.198 203.731 124.026  0.00  0.00     0.012 A 
ATOM     28  C12  11 d         -16.904 205.386 123.460  0.00  0.00     0.030 A 
ATOM     29  C14  11 d         -21.114 202.933 123.325  0.00  0.00     0.001 A 
ATOM     30  C15  11 d         -20.847 202.551 122.002  0.00  0.00     0.001 A 
ENDBRANCH  19  21
ENDBRANCH  16  17
ENDBRANCH   1  16
TORSDOF 4
ENDMDL
MODEL 13
REMARK VINA RESULT:      -8.4      5.198      7.934
REMARK  4 active torsions:
REMARK  status: ('A' for Active; 'I' for Inactive)
REMARK    1  A    between atoms: C4_6  and  S1_7 
REMARK    2  A    between atoms: S1_7  and  C5_8 
REMARK    3  A    between atoms: C5_8  and  C6_9 
REMARK       I    between atoms: C6_9  and  N2_11 
REMARK    4  A    between atoms: N2_11  and  C7_12 
ROOT
ATOM      1  S1   11 d         -10.159 208.663 118.383  0.00  0.00    -0.145 SA
ENDROOT
BRANCH   1   2
ATOM      2  C4   11 d         -10.598 207.072 117.550  0.00  0.00     0.149 A 
ATOM      3  C3   11 d         -11.565 206.240 118.396  0.00  0.00     0.128 A 
ATOM      4  C2   11 d         -12.731 206.020 117.497  0.00  0.00     0.232 A 
ATOM      5  N1   11 d         -12.617 206.634 116.222  0.00  0.00    -0.251 N 
ATOM      6  O1   11 d         -13.733 205.330 117.888  0.00  0.00    -0.273 OA
ATOM      7  C1   11 d         -11.345 207.267 116.266  0.00  0.00     0.245 A 
ATOM      8  C17  11 d         -13.606 206.617 115.096  0.00  0.00     0.045 A 
ATOM      9  O3   11 d         -10.840 207.944 115.305  0.00  0.00    -0.271 OA
ATOM     10  C18  11 d         -14.840 205.921 115.196  0.00  0.00     0.031 A 
ATOM     11  C22  11 d         -13.357 207.293 113.872  0.00  0.00     0.031 A 
ATOM     12  C19  11 d         -15.763 205.898 114.139  0.00  0.00     0.021 A 
ATOM     13  C20  11 d         -15.486 206.573 112.948  0.00  0.00     0.011 A 
ATOM     14 Br1   11 d         -16.754 206.541 111.496  0.00  0.00    -0.051 Br
ATOM     15  C21  11 d         -14.283 207.272 112.817  0.00  0.00     0.021 A 
ENDBRANCH   1   2
BRANCH   1  16
ATOM     16  C5   11 d          -8.656 208.048 119.262  0.00  0.00     0.177 C 
BRANCH  16  17
ATOM     17  C6   11 d          -7.374 208.224 118.490  0.00  0.00     0.231 C 
ATOM     18  O2   11 d          -6.611 209.217 118.753  0.00  0.00    -0.272 OA
ATOM     19  N2   11 d          -7.049 207.272 117.471  0.00  0.00    -0.327 N 
ATOM     20  H6   11 d          -7.756 206.475 117.325  0.00  0.00     0.169 HD
BRANCH  19  21
ATOM     21  C7   11 d          -5.853 207.254 116.600  0.00  0.00     0.035 A 
ATOM     22  C8   11 d          -5.992 207.817 115.313  0.00  0.00     0.042 A 
ATOM     23  C9   11 d          -4.924 207.829 114.398  0.00  0.00    -0.024 A 
ATOM     24  C10  11 d          -3.675 207.272 114.773  0.00  0.00    -0.026 A 
ATOM     25  C16  11 d          -5.082 208.380 113.111  0.00  0.00     0.012 A 
ATOM     26  C11  11 d          -3.522 206.719 116.055  0.00  0.00     0.014 A 
ATOM     27  C13  11 d          -2.604 207.277 113.856  0.00  0.00     0.012 A 
ATOM     28  C12  11 d          -4.596 206.709 116.958  0.00  0.00     0.030 A 
ATOM     29  C14  11 d          -2.774 207.828 112.578  0.00  0.00     0.001 A 
ATOM     30  C15  11 d          -4.010 208.378 112.206  0.00  0.00     0.001 A 
ENDBRANCH  19  21
ENDBRANCH  16  17
ENDBRANCH   1  16
TORSDOF 4
ENDMDL
MODEL 14
REMARK VINA RESULT:      -8.4      3.591      4.134
REMARK  4 active torsions:
REMARK  status: ('A' for Active; 'I' for Inactive)
REMARK    1  A    between atoms: C4_6  and  S1_7 
REMARK    2  A    between atoms: S1_7  and  C5_8 
REMARK    3  A    between atoms: C5_8  and  C6_9 
REMARK       I    between atoms: C6_9  and  N2_11 
REMARK    4  A    between atoms: N2_11  and  C7_12 
ROOT
ATOM      1  S1   11 d         -14.990 207.255 120.094  0.00  0.00    -0.145 SA
ENDROOT
BRANCH   1   2
ATOM      2  C4   11 d         -15.656 206.289 121.522  0.00  0.00     0.149 A 
ATOM      3  C3   11 d         -16.227 204.942 121.075  0.00  0.00     0.128 A 
ATOM      4  C2   11 d         -15.471 203.945 121.882  0.00  0.00     0.232 A 
ATOM      5  N1   11 d         -14.490 204.505 122.742  0.00  0.00    -0.251 N 
ATOM      6  O1   11 d         -15.717 202.696 121.771  0.00  0.00    -0.273 OA
ATOM      7  C1   11 d         -14.602 205.904 122.515  0.00  0.00     0.245 A 
ATOM      8  C17  11 d         -13.558 203.788 123.671  0.00  0.00     0.045 A 
ATOM      9  O3   11 d         -13.890 206.791 123.098  0.00  0.00    -0.271 OA
ATOM     10  C18  11 d         -13.576 202.374 123.803  0.00  0.00     0.031 A 
ATOM     11  C22  11 d         -12.614 204.487 124.469  0.00  0.00     0.031 A 
ATOM     12  C19  11 d         -12.709 201.703 124.680  0.00  0.00     0.021 A 
ATOM     13  C20  11 d         -11.792 202.422 125.451  0.00  0.00     0.011 A 
ATOM     14 Br1   11 d         -10.601 201.499 126.654  0.00  0.00    -0.051 Br
ATOM     15  C21  11 d         -11.745 203.814 125.342  0.00  0.00     0.021 A 
ENDBRANCH   1   2
BRANCH   1  16
ATOM     16  C5   11 d         -13.755 206.002 119.532  0.00  0.00     0.177 C 
BRANCH  16  17
ATOM     17  C6   11 d         -13.346 206.142 118.089  0.00  0.00     0.231 C 
ATOM     18  O2   11 d         -12.139 206.460 117.803  0.00  0.00    -0.272 OA
ATOM     19  N2   11 d         -14.328 205.921 117.071  0.00  0.00    -0.327 N 
ATOM     20  H6   11 d         -15.313 205.660 117.413  0.00  0.00     0.169 HD
BRANCH  19  21
ATOM     21  C7   11 d         -14.145 206.005 115.605  0.00  0.00     0.035 A 
ATOM     22  C8   11 d         -15.315 206.038 114.816  0.00  0.00     0.042 A 
ATOM     23  C9   11 d         -15.252 206.092 113.412  0.00  0.00    -0.024 A 
ATOM     24  C10  11 d         -13.989 206.124 112.769  0.00  0.00    -0.026 A 
ATOM     25  C16  11 d         -16.428 206.108 112.636  0.00  0.00     0.012 A 
ATOM     26  C11  11 d         -12.818 206.103 113.544  0.00  0.00     0.014 A 
ATOM     27  C13  11 d         -13.922 206.174 111.361  0.00  0.00     0.012 A 
ATOM     28  C12  11 d         -12.893 206.044 114.944  0.00  0.00     0.030 A 
ATOM     29  C14  11 d         -15.100 206.188 110.601  0.00  0.00     0.001 A 
ATOM     30  C15  11 d         -16.350 206.156 111.237  0.00  0.00     0.001 A 
ENDBRANCH  19  21
ENDBRANCH  16  17
ENDBRANCH   1  16
TORSDOF 4
ENDMDL
MODEL 15
REMARK VINA RESULT:      -8.4      5.415      6.826
REMARK  4 active torsions:
REMARK  status: ('A' for Active; 'I' for Inactive)
REMARK    1  A    between atoms: C4_6  and  S1_7 
REMARK    2  A    between atoms: S1_7  and  C5_8 
REMARK    3  A    between atoms: C5_8  and  C6_9 
REMARK       I    between atoms: C6_9  and  N2_11 
REMARK    4  A    between atoms: N2_11  and  C7_12 
ROOT
ATOM      1  S1   11 d          -7.785 208.333 116.938  0.00  0.00    -0.145 SA
ENDROOT
BRANCH   1   2
ATOM      2  C4   11 d          -7.290 208.472 118.714  0.00  0.00     0.149 A 
ATOM      3  C3   11 d          -8.505 208.663 119.625  0.00  0.00     0.128 A 
ATOM      4  C2   11 d          -8.408 207.536 120.594  0.00  0.00     0.232 A 
ATOM      5  N1   11 d          -7.308 206.665 120.376  0.00  0.00    -0.251 N 
ATOM      6  O1   11 d          -9.271 207.404 121.527  0.00  0.00    -0.273 OA
ATOM      7  C1   11 d          -6.652 207.226 119.247  0.00  0.00     0.245 A 
ATOM      8  C17  11 d          -6.931 205.441 121.155  0.00  0.00     0.045 A 
ATOM      9  O3   11 d          -5.596 206.744 118.710  0.00  0.00    -0.271 OA
ATOM     10  C18  11 d          -7.683 205.010 122.280  0.00  0.00     0.031 A 
ATOM     11  C22  11 d          -5.801 204.654 120.809  0.00  0.00     0.031 A 
ATOM     12  C19  11 d          -7.325 203.869 123.015  0.00  0.00     0.021 A 
ATOM     13  C20  11 d          -6.206 203.118 122.648  0.00  0.00     0.011 A 
ATOM     14 Br1   11 d          -5.714 201.550 123.657  0.00  0.00    -0.051 Br
ATOM     15  C21  11 d          -5.446 203.511 121.543  0.00  0.00     0.021 A 
ENDBRANCH   1   2
BRANCH   1  16
ATOM     16  C5   11 d          -9.579 208.006 117.230  0.00  0.00     0.177 C 
BRANCH  16  17
ATOM     17  C6   11 d         -10.432 208.097 115.992  0.00  0.00     0.231 C 
ATOM     18  O2   11 d         -10.726 209.246 115.510  0.00  0.00    -0.272 OA
ATOM     19  N2   11 d         -10.900 206.885 115.389  0.00  0.00    -0.327 N 
ATOM     20  H6   11 d         -10.601 205.972 115.869  0.00  0.00     0.169 HD
BRANCH  19  21
ATOM     21  C7   11 d         -11.742 206.745 114.180  0.00  0.00     0.035 A 
ATOM     22  C8   11 d         -13.119 206.514 114.385  0.00  0.00     0.042 A 
ATOM     23  C9   11 d         -14.004 206.341 113.304  0.00  0.00    -0.024 A 
ATOM     24  C10  11 d         -13.508 206.407 111.978  0.00  0.00    -0.026 A 
ATOM     25  C16  11 d         -15.374 206.096 113.524  0.00  0.00     0.012 A 
ATOM     26  C11  11 d         -12.141 206.647 111.762  0.00  0.00     0.014 A 
ATOM     27  C13  11 d         -14.390 206.229 110.892  0.00  0.00     0.012 A 
ATOM     28  C12  11 d         -11.269 206.814 112.848  0.00  0.00     0.030 A 
ATOM     29  C14  11 d         -15.752 205.985 111.125  0.00  0.00     0.001 A 
ATOM     30  C15  11 d         -16.242 205.919 112.437  0.00  0.00     0.001 A 
ENDBRANCH  19  21
ENDBRANCH  16  17
ENDBRANCH   1  16
TORSDOF 4
ENDMDL
MODEL 16
REMARK VINA RESULT:      -8.3      4.700      8.820
REMARK  4 active torsions:
REMARK  status: ('A' for Active; 'I' for Inactive)
REMARK    1  A    between atoms: C4_6  and  S1_7 
REMARK    2  A    between atoms: S1_7  and  C5_8 
REMARK    3  A    between atoms: C5_8  and  C6_9 
REMARK       I    between atoms: C6_9  and  N2_11 
REMARK    4  A    between atoms: N2_11  and  C7_12 
ROOT
ATOM      1  S1   11 d         -12.932 206.364 119.105  0.00  0.00    -0.145 SA
ENDROOT
BRANCH   1   2
ATOM      2  C4   11 d         -13.039 205.200 117.673  0.00  0.00     0.149 A 
ATOM      3  C3   11 d         -14.481 205.038 117.185  0.00  0.00     0.128 A 
ATOM      4  C2   11 d         -14.418 205.417 115.746  0.00  0.00     0.232 A 
ATOM      5  N1   11 d         -13.132 205.819 115.299  0.00  0.00    -0.251 N 
ATOM      6  O1   11 d         -15.466 205.373 115.015  0.00  0.00    -0.273 OA
ATOM      7  C1   11 d         -12.318 205.695 116.457  0.00  0.00     0.245 A 
ATOM      8  C17  11 d         -12.731 206.269 113.926  0.00  0.00     0.045 A 
ATOM      9  O3   11 d         -11.067 205.961 116.494  0.00  0.00    -0.271 OA
ATOM     10  C18  11 d         -13.663 206.326 112.856  0.00  0.00     0.031 A 
ATOM     11  C22  11 d         -11.398 206.655 113.627  0.00  0.00     0.031 A 
ATOM     12  C19  11 d         -13.285 206.739 111.569  0.00  0.00     0.021 A 
ATOM     13  C20  11 d         -11.965 207.112 111.308  0.00  0.00     0.011 A 
ATOM     14 Br1   11 d         -11.446 207.679 109.540  0.00  0.00    -0.051 Br
ATOM     15  C21  11 d         -11.022 207.071 112.340  0.00  0.00     0.021 A 
ENDBRANCH   1   2
BRANCH   1  16
ATOM     16  C5   11 d         -11.673 205.417 120.070  0.00  0.00     0.177 C 
BRANCH  16  17
ATOM     17  C6   11 d         -10.268 205.945 119.936  0.00  0.00     0.231 C 
ATOM     18  O2   11 d          -9.303 205.319 120.497  0.00  0.00    -0.272 OA
ATOM     19  N2   11 d         -10.052 207.145 119.185  0.00  0.00    -0.327 N 
ATOM     20  H6   11 d         -10.927 207.597 118.754  0.00  0.00     0.169 HD
BRANCH  19  21
ATOM     21  C7   11 d          -8.767 207.832 118.929  0.00  0.00     0.035 A 
ATOM     22  C8   11 d          -8.411 208.871 119.815  0.00  0.00     0.042 A 
ATOM     23  C9   11 d          -7.222 209.605 119.646  0.00  0.00    -0.024 A 
ATOM     24  C10  11 d          -6.354 209.292 118.570  0.00  0.00    -0.026 A 
ATOM     25  C16  11 d          -6.888 210.650 120.529  0.00  0.00     0.012 A 
ATOM     26  C11  11 d          -6.692 208.252 117.689  0.00  0.00     0.014 A 
ATOM     27  C13  11 d          -5.164 210.028 118.396  0.00  0.00     0.012 A 
ATOM     28  C12  11 d          -7.883 207.530 117.865  0.00  0.00     0.030 A 
ATOM     29  C14  11 d          -4.843 211.067 119.281  0.00  0.00     0.001 A 
ATOM     30  C15  11 d          -5.703 211.378 120.345  0.00  0.00     0.001 A 
ENDBRANCH  19  21
ENDBRANCH  16  17
ENDBRANCH   1  16
TORSDOF 4
ENDMDL
MODEL 17
REMARK VINA RESULT:      -8.2      4.453      7.397
REMARK  4 active torsions:
REMARK  status: ('A' for Active; 'I' for Inactive)
REMARK    1  A    between atoms: C4_6  and  S1_7 
REMARK    2  A    between atoms: S1_7  and  C5_8 
REMARK    3  A    between atoms: C5_8  and  C6_9 
REMARK       I    between atoms: C6_9  and  N2_11 
REMARK    4  A    between atoms: N2_11  and  C7_12 
ROOT
ATOM      1  S1   11 d         -12.412 206.828 118.995  0.00  0.00    -0.145 SA
ENDROOT
BRANCH   1   2
ATOM      2  C4   11 d         -10.950 206.457 117.926  0.00  0.00     0.149 A 
ATOM      3  C3   11 d         -10.942 207.321 116.663  0.00  0.00     0.128 A 
ATOM      4  C2   11 d          -9.626 208.016 116.713  0.00  0.00     0.232 A 
ATOM      5  N1   11 d          -8.842 207.713 117.857  0.00  0.00    -0.251 N 
ATOM      6  O1   11 d          -9.277 208.817 115.779  0.00  0.00    -0.273 OA
ATOM      7  C1   11 d          -9.644 206.788 118.579  0.00  0.00     0.245 A 
ATOM      8  C17  11 d          -7.487 208.244 118.216  0.00  0.00     0.045 A 
ATOM      9  O3   11 d          -9.307 206.252 119.691  0.00  0.00    -0.271 OA
ATOM     10  C18  11 d          -6.797 209.159 117.377  0.00  0.00     0.031 A 
ATOM     11  C22  11 d          -6.824 207.855 119.410  0.00  0.00     0.031 A 
ATOM     12  C19  11 d          -5.525 209.650 117.709  0.00  0.00     0.021 A 
ATOM     13  C20  11 d          -4.901 209.246 118.891  0.00  0.00     0.011 A 
ATOM     14 Br1   11 d          -3.153 209.921 119.347  0.00  0.00    -0.051 Br
ATOM     15  C21  11 d          -5.553 208.350 119.742  0.00  0.00     0.021 A 
ENDBRANCH   1   2
BRANCH   1  16
ATOM     16  C5   11 d         -13.619 205.748 118.108  0.00  0.00     0.177 C 
BRANCH  16  17
ATOM     17  C6   11 d         -14.123 206.324 116.809  0.00  0.00     0.231 C 
ATOM     18  O2   11 d         -14.431 207.565 116.747  0.00  0.00    -0.272 OA
ATOM     19  N2   11 d         -14.251 205.458 115.677  0.00  0.00    -0.327 N 
ATOM     20  H6   11 d         -13.970 204.432 115.831  0.00  0.00     0.169 HD
BRANCH  19  21
ATOM     21  C7   11 d         -14.722 205.811 114.318  0.00  0.00     0.035 A 
ATOM     22  C8   11 d         -13.732 206.102 113.356  0.00  0.00     0.042 A 
ATOM     23  C9   11 d         -14.072 206.473 112.042  0.00  0.00    -0.024 A 
ATOM     24  C10  11 d         -15.438 206.549 111.668  0.00  0.00    -0.026 A 
ATOM     25  C16  11 d         -13.074 206.778 111.096  0.00  0.00     0.012 A 
ATOM     26  C11  11 d         -16.431 206.249 112.615  0.00  0.00     0.014 A 
ATOM     27  C13  11 d         -15.783 206.924 110.354  0.00  0.00     0.012 A 
ATOM     28  C12  11 d         -16.079 205.885 113.923  0.00  0.00     0.030 A 
ATOM     29  C14  11 d         -14.779 207.226 109.422  0.00  0.00     0.001 A 
ATOM     30  C15  11 d         -13.428 207.153 109.791  0.00  0.00     0.001 A 
ENDBRANCH  19  21
ENDBRANCH  16  17
ENDBRANCH   1  16
TORSDOF 4
ENDMDL
MODEL 18
REMARK VINA RESULT:      -8.2      3.356      8.787
REMARK  4 active torsions:
REMARK  status: ('A' for Active; 'I' for Inactive)
REMARK    1  A    between atoms: C4_6  and  S1_7 
REMARK    2  A    between atoms: S1_7  and  C5_8 
REMARK    3  A    between atoms: C5_8  and  C6_9 
REMARK       I    between atoms: C6_9  and  N2_11 
REMARK    4  A    between atoms: N2_11  and  C7_12 
ROOT
ATOM      1  S1   11 d         -12.003 206.756 117.712  0.00  0.00    -0.145 SA
ENDROOT
BRANCH   1   2
ATOM      2  C4   11 d         -12.594 205.466 116.527  0.00  0.00     0.149 A 
ATOM      3  C3   11 d         -14.067 205.121 116.757  0.00  0.00     0.128 A 
ATOM      4  C2   11 d         -14.706 205.377 115.437  0.00  0.00     0.232 A 
ATOM      5  N1   11 d         -13.822 205.862 114.438  0.00  0.00    -0.251 N 
ATOM      6  O1   11 d         -15.956 205.166 115.266  0.00  0.00    -0.273 OA
ATOM      7  C1   11 d         -12.565 205.920 115.099  0.00  0.00     0.245 A 
ATOM      8  C17  11 d         -14.140 206.226 113.019  0.00  0.00     0.045 A 
ATOM      9  O3   11 d         -11.476 206.309 114.553  0.00  0.00    -0.271 OA
ATOM     10  C18  11 d         -15.453 206.098 112.492  0.00  0.00     0.031 A 
ATOM     11  C22  11 d         -13.145 206.713 112.131  0.00  0.00     0.031 A 
ATOM     12  C19  11 d         -15.750 206.430 111.161  0.00  0.00     0.021 A 
ATOM     13  C20  11 d         -14.747 206.906 110.314  0.00  0.00     0.011 A 
ATOM     14 Br1   11 d         -15.155 207.364 108.485  0.00  0.00    -0.051 Br
ATOM     15  C21  11 d         -13.445 207.049 110.801  0.00  0.00     0.021 A 
ENDBRANCH   1   2
BRANCH   1  16
ATOM     16  C5   11 d         -12.140 205.734 119.243  0.00  0.00     0.177 C 
BRANCH  16  17
ATOM     17  C6   11 d         -13.490 205.800 119.911  0.00  0.00     0.231 C 
ATOM     18  O2   11 d         -14.034 206.939 120.121  0.00  0.00    -0.272 OA
ATOM     19  N2   11 d         -14.125 204.577 120.300  0.00  0.00    -0.327 N 
ATOM     20  H6   11 d         -13.586 203.673 120.082  0.00  0.00     0.169 HD
BRANCH  19  21
ATOM     21  C7   11 d         -15.438 204.413 120.963  0.00  0.00     0.035 A 
ATOM     22  C8   11 d         -16.530 204.068 120.138  0.00  0.00     0.042 A 
ATOM     23  C9   11 d         -17.826 203.912 120.664  0.00  0.00    -0.024 A 
ATOM     24  C10  11 d         -18.045 204.096 122.053  0.00  0.00    -0.026 A 
ATOM     25  C16  11 d         -18.911 203.583 119.827  0.00  0.00     0.012 A 
ATOM     26  C11  11 d         -16.963 204.428 122.884  0.00  0.00     0.014 A 
ATOM     27  C13  11 d         -19.342 203.945 122.582  0.00  0.00     0.012 A 
ATOM     28  C12  11 d         -15.676 204.585 122.348  0.00  0.00     0.030 A 
ATOM     29  C14  11 d         -20.413 203.618 121.738  0.00  0.00     0.001 A 
ATOM     30  C15  11 d         -20.198 203.437 120.364  0.00  0.00     0.001 A 
ENDBRANCH  19  21
ENDBRANCH  16  17
ENDBRANCH   1  16
TORSDOF 4
ENDMDL
MODEL 19
REMARK VINA RESULT:      -8.1      5.506      9.384
REMARK  4 active torsions:
REMARK  status: ('A' for Active; 'I' for Inactive)
REMARK    1  A    between atoms: C4_6  and  S1_7 
REMARK    2  A    between atoms: S1_7  and  C5_8 
REMARK    3  A    between atoms: C5_8  and  C6_9 
REMARK       I    between atoms: C6_9  and  N2_11 
REMARK    4  A    between atoms: N2_11  and  C7_12 
ROOT
ATOM      1  S1   11 d          -6.296 208.470 114.291  0.00  0.00    -0.145 SA
ENDROOT
BRANCH   1   2
ATOM      2  C4   11 d          -7.783 209.340 113.619  0.00  0.00     0.149 A 
ATOM      3  C3   11 d          -7.941 209.107 112.115  0.00  0.00     0.128 A 
ATOM      4  C2   11 d          -9.306 208.525 111.983  0.00  0.00     0.232 A 
ATOM      5  N1   11 d          -9.991 208.344 113.213  0.00  0.00    -0.251 N 
ATOM      6  O1   11 d          -9.777 208.225 110.833  0.00  0.00    -0.273 OA
ATOM      7  C1   11 d          -9.072 208.824 114.185  0.00  0.00     0.245 A 
ATOM      8  C17  11 d         -11.361 207.779 113.433  0.00  0.00     0.045 A 
ATOM      9  O3   11 d          -9.294 208.845 115.444  0.00  0.00    -0.271 OA
ATOM     10  C18  11 d         -12.175 207.351 112.350  0.00  0.00     0.031 A 
ATOM     11  C22  11 d         -11.916 207.647 114.733  0.00  0.00     0.031 A 
ATOM     12  C19  11 d         -13.462 206.830 112.555  0.00  0.00     0.021 A 
ATOM     13  C20  11 d         -13.977 206.714 113.848  0.00  0.00     0.011 A 
ATOM     14 Br1   11 d         -15.746 205.997 114.129  0.00  0.00    -0.051 Br
ATOM     15  C21  11 d         -13.201 207.121 114.937  0.00  0.00     0.021 A 
ENDBRANCH   1   2
BRANCH   1  16
ATOM     16  C5   11 d          -5.969 209.634 115.688  0.00  0.00     0.177 C 
BRANCH  16  17
ATOM     17  C6   11 d          -6.340 209.089 117.044  0.00  0.00     0.231 C 
ATOM     18  O2   11 d          -5.949 209.702 118.097  0.00  0.00    -0.272 OA
ATOM     19  N2   11 d          -7.117 207.889 117.114  0.00  0.00    -0.327 N 
ATOM     20  H6   11 d          -7.394 207.449 116.174  0.00  0.00     0.169 HD
BRANCH  19  21
ATOM     21  C7   11 d          -7.587 207.188 118.329  0.00  0.00     0.035 A 
ATOM     22  C8   11 d          -6.616 206.490 119.079  0.00  0.00     0.042 A 
ATOM     23  C9   11 d          -6.962 205.769 120.237  0.00  0.00    -0.024 A 
ATOM     24  C10  11 d          -8.312 205.747 120.671  0.00  0.00    -0.026 A 
ATOM     25  C16  11 d          -5.985 205.064 120.968  0.00  0.00     0.012 A 
ATOM     26  C11  11 d          -9.284 206.447 119.938  0.00  0.00     0.014 A 
ATOM     27  C13  11 d          -8.663 205.022 121.828  0.00  0.00     0.012 A 
ATOM     28  C12  11 d          -8.928 207.159 118.783  0.00  0.00     0.030 A 
ATOM     29  C14  11 d          -7.681 204.323 122.545  0.00  0.00     0.001 A 
ATOM     30  C15  11 d          -6.345 204.344 122.116  0.00  0.00     0.001 A 
ENDBRANCH  19  21
ENDBRANCH  16  17
ENDBRANCH   1  16
TORSDOF 4
ENDMDL
MODEL 20
REMARK VINA RESULT:      -8.1      5.755      7.953
REMARK  4 active torsions:
REMARK  status: ('A' for Active; 'I' for Inactive)
REMARK    1  A    between atoms: C4_6  and  S1_7 
REMARK    2  A    between atoms: S1_7  and  C5_8 
REMARK    3  A    between atoms: C5_8  and  C6_9 
REMARK       I    between atoms: C6_9  and  N2_11 
REMARK    4  A    between atoms: N2_11  and  C7_12 
ROOT
ATOM      1  S1   11 d          -9.334 207.969 118.123  0.00  0.00    -0.145 SA
ENDROOT
BRANCH   1   2
ATOM      2  C4   11 d          -8.677 207.277 119.707  0.00  0.00     0.149 A 
ATOM      3  C3   11 d          -7.456 206.385 119.470  0.00  0.00     0.128 A 
ATOM      4  C2   11 d          -6.394 206.998 120.315  0.00  0.00     0.232 A 
ATOM      5  N1   11 d          -6.798 208.166 121.014  0.00  0.00    -0.251 N 
ATOM      6  O1   11 d          -5.227 206.480 120.371  0.00  0.00    -0.273 OA
ATOM      7  C1   11 d          -8.159 208.330 120.639  0.00  0.00     0.245 A 
ATOM      8  C17  11 d          -5.979 209.022 121.932  0.00  0.00     0.045 A 
ATOM      9  O3   11 d          -8.914 209.276 121.051  0.00  0.00    -0.271 OA
ATOM     10  C18  11 d          -4.623 208.719 122.226  0.00  0.00     0.031 A 
ATOM     11  C22  11 d          -6.519 210.178 122.556  0.00  0.00     0.031 A 
ATOM     12  C19  11 d          -3.859 209.516 123.092  0.00  0.00     0.021 A 
ATOM     13  C20  11 d          -4.422 210.645 123.690  0.00  0.00     0.011 A 
ATOM     14 Br1   11 d          -3.371 211.741 124.880  0.00  0.00    -0.051 Br
ATOM     15  C21  11 d          -5.753 210.976 123.419  0.00  0.00     0.021 A 
ENDBRANCH   1   2
BRANCH   1  16
ATOM     16  C5   11 d         -10.667 206.716 117.868  0.00  0.00     0.177 C 
BRANCH  16  17
ATOM     17  C6   11 d         -11.541 206.981 116.669  0.00  0.00     0.231 C 
ATOM     18  O2   11 d         -12.449 207.879 116.737  0.00  0.00    -0.272 OA
ATOM     19  N2   11 d         -11.331 206.209 115.482  0.00  0.00    -0.327 N 
ATOM     20  H6   11 d         -10.545 205.478 115.525  0.00  0.00     0.169 HD
BRANCH  19  21
ATOM     21  C7   11 d         -12.068 206.303 114.201  0.00  0.00     0.035 A 
ATOM     22  C8   11 d         -13.469 206.145 114.259  0.00  0.00     0.042 A 
ATOM     23  C9   11 d         -14.261 206.191 113.096  0.00  0.00    -0.024 A 
ATOM     24  C10  11 d         -13.645 206.410 111.838  0.00  0.00    -0.026 A 
ATOM     25  C16  11 d         -15.657 206.016 113.166  0.00  0.00     0.012 A 
ATOM     26  C11  11 d         -12.253 206.581 111.771  0.00  0.00     0.014 A 
ATOM     27  C13  11 d         -14.435 206.453 110.671  0.00  0.00     0.012 A 
ATOM     28  C12  11 d         -11.473 206.527 112.937  0.00  0.00     0.030 A 
ATOM     29  C14  11 d         -15.824 206.275 110.755  0.00  0.00     0.001 A 
ATOM     30  C15  11 d         -16.433 206.058 111.999  0.00  0.00     0.001 A 
ENDBRANCH  19  21
ENDBRANCH  16  17
ENDBRANCH   1  16
TORSDOF 4
ENDMDL
