MODEL 1
REMARK VINA RESULT:      -8.4      0.000      0.000
REMARK  2 active torsions:
REMARK  status: ('A' for Active; 'I' for Inactive)
REMARK    1  A    between atoms: C5_5  and  O1_6 
REMARK    2  A    between atoms: C16_17  and  N1_18 
REMARK       I    between atoms: N2_23  and  C19_24 
ROOT
ATOM      1  C1   11 d          -9.180 208.681 114.583  0.00  0.00     0.072 C 
ATOM      2  C2   11 d         -10.202 207.979 113.763  0.00  0.00    -0.003 A 
ATOM      3  C3   11 d         -10.359 208.348 112.402  0.00  0.00    -0.043 A 
ATOM      4  C4   11 d         -11.252 207.619 111.592  0.00  0.00     0.044 A 
ATOM      5  C5   11 d         -12.045 206.598 112.138  0.00  0.00     0.068 A 
ATOM      6  C7   11 d         -11.889 206.241 113.486  0.00  0.00     0.037 A 
ATOM      7  C8   11 d         -10.979 206.931 114.298  0.00  0.00     0.017 A 
ATOM      8  C9   11 d          -9.465 209.397 111.765  0.00  0.00     0.040 C 
ATOM      9  C10  11 d          -8.124 209.572 112.498  0.00  0.00     0.018 C 
ATOM     10  C11  11 d          -8.361 209.792 114.005  0.00  0.00     0.070 C 
ATOM     11  C12  11 d          -7.170 209.843 114.972  0.00  0.00     0.156 C 
ATOM     12  C13  11 d          -5.879 209.274 114.403  0.00  0.00    -0.032 A 
ATOM     13  C14  11 d          -5.606 207.891 114.431  0.00  0.00     0.012 A 
ATOM     14  C15  11 d          -4.384 207.393 113.958  0.00  0.00     0.037 A 
ATOM     15  C16  11 d          -3.387 208.263 113.460  0.00  0.00     0.102 A 
ATOM     16  C17  11 d          -3.651 209.652 113.475  0.00  0.00     0.037 A 
ATOM     17  C18  11 d          -4.874 210.150 113.950  0.00  0.00     0.012 A 
ATOM     18  N2   11 d          -7.692 209.028 116.106  0.00  0.00    -0.228 N 
ATOM     19  C19  11 d          -7.088 208.944 117.393  0.00  0.00     0.236 C 
ATOM     20  O4   11 d          -6.030 209.625 117.642  0.00  0.00    -0.272 OA
ATOM     21  C20  11 d          -7.696 208.117 118.485  0.00  0.00     0.119 C 
ATOM     22  N3   11 d          -8.853 208.327 115.791  0.00  0.00    -0.172 NA
ENDROOT
BRANCH  15  23
ATOM     23  N1   11 d          -2.168 207.775 112.980  0.00  0.00    -0.116 N 
ATOM     24  O2   11 d          -1.840 207.990 111.904  0.00  0.00    -0.532 OA
ATOM     25  O3   11 d          -1.325 207.262 113.766  0.00  0.00    -0.532 OA
ENDBRANCH  15  23
BRANCH   5  26
ATOM     26  O1   11 d         -12.891 205.831 111.295  0.00  0.00    -0.356 OA
ATOM     27  C6   11 d         -13.762 206.716 110.549  0.00  0.00     0.210 C 
ENDBRANCH   5  26
TORSDOF 2
ENDMDL
MODEL 2
REMARK VINA RESULT:      -7.8      3.319      7.835
REMARK  2 active torsions:
REMARK  status: ('A' for Active; 'I' for Inactive)
REMARK    1  A    between atoms: C5_5  and  O1_6 
REMARK    2  A    between atoms: C16_17  and  N1_18 
REMARK       I    between atoms: N2_23  and  C19_24 
ROOT
ATOM      1  C1   11 d          -8.806 208.186 117.065  0.00  0.00     0.072 C 
ATOM      2  C2   11 d          -8.368 207.281 118.160  0.00  0.00    -0.003 A 
ATOM      3  C3   11 d          -9.311 206.893 119.147  0.00  0.00    -0.043 A 
ATOM      4  C4   11 d          -8.932 205.956 120.128  0.00  0.00     0.044 A 
ATOM      5  C5   11 d          -7.614 205.476 120.189  0.00  0.00     0.068 A 
ATOM      6  C7   11 d          -6.685 205.868 119.215  0.00  0.00     0.037 A 
ATOM      7  C8   11 d          -7.055 206.771 118.209  0.00  0.00     0.017 A 
ATOM      8  C9   11 d         -10.761 207.337 119.063  0.00  0.00     0.040 C 
ATOM      9  C10  11 d         -11.195 207.715 117.637  0.00  0.00     0.018 C 
ATOM     10  C11  11 d         -10.203 208.722 117.024  0.00  0.00     0.070 C 
ATOM     11  C12  11 d         -10.339 209.136 115.552  0.00  0.00     0.156 C 
ATOM     12  C13  11 d         -11.209 208.208 114.719  0.00  0.00    -0.032 A 
ATOM     13  C14  11 d         -10.694 207.026 114.147  0.00  0.00     0.012 A 
ATOM     14  C15  11 d         -11.497 206.216 113.332  0.00  0.00     0.037 A 
ATOM     15  C16  11 d         -12.835 206.571 113.045  0.00  0.00     0.102 A 
ATOM     16  C17  11 d         -13.332 207.779 113.588  0.00  0.00     0.037 A 
ATOM     17  C18  11 d         -12.527 208.590 114.402  0.00  0.00     0.012 A 
ATOM     18  N2   11 d          -8.913 209.108 115.118  0.00  0.00    -0.228 N 
ATOM     19  C19  11 d          -8.424 209.646 113.893  0.00  0.00     0.236 C 
ATOM     20  O4   11 d          -9.236 210.228 113.089  0.00  0.00    -0.272 OA
ATOM     21  C20  11 d          -6.967 209.595 113.548  0.00  0.00     0.119 C 
ATOM     22  N3   11 d          -8.070 208.487 116.035  0.00  0.00    -0.172 NA
ENDROOT
BRANCH  15  23
ATOM     23  N1   11 d         -13.645 205.765 112.239  0.00  0.00    -0.116 N 
ATOM     24  O2   11 d         -14.446 205.094 112.708  0.00  0.00    -0.532 OA
ATOM     25  O3   11 d         -13.646 205.903 110.985  0.00  0.00    -0.532 OA
ENDBRANCH  15  23
BRANCH   5  26
ATOM     26  O1   11 d          -7.266 204.484 121.143  0.00  0.00    -0.356 OA
ATOM     27  C6   11 d          -6.246 203.617 120.590  0.00  0.00     0.210 C 
ENDBRANCH   5  26
TORSDOF 2
ENDMDL
MODEL 3
REMARK VINA RESULT:      -7.8      1.491      1.717
REMARK  2 active torsions:
REMARK  status: ('A' for Active; 'I' for Inactive)
REMARK    1  A    between atoms: C5_5  and  O1_6 
REMARK    2  A    between atoms: C16_17  and  N1_18 
REMARK       I    between atoms: N2_23  and  C19_24 
ROOT
ATOM      1  C1   11 d          -8.665 208.837 115.090  0.00  0.00     0.072 C 
ATOM      2  C2   11 d          -9.564 208.402 113.989  0.00  0.00    -0.003 A 
ATOM      3  C3   11 d          -9.252 208.786 112.658  0.00  0.00    -0.043 A 
ATOM      4  C4   11 d         -10.040 208.292 111.600  0.00  0.00     0.044 A 
ATOM      5  C5   11 d         -11.173 207.504 111.855  0.00  0.00     0.068 A 
ATOM      6  C7   11 d         -11.478 207.132 113.173  0.00  0.00     0.037 A 
ATOM      7  C8   11 d         -10.685 207.583 114.236  0.00  0.00     0.017 A 
ATOM      8  C9   11 d          -7.993 209.575 112.344  0.00  0.00     0.040 C 
ATOM      9  C10  11 d          -6.901 209.419 113.415  0.00  0.00     0.018 C 
ATOM     10  C11  11 d          -7.478 209.706 114.815  0.00  0.00     0.070 C 
ATOM     11  C12  11 d          -6.618 209.469 116.065  0.00  0.00     0.156 C 
ATOM     12  C13  11 d          -5.398 208.594 115.827  0.00  0.00    -0.032 A 
ATOM     13  C14  11 d          -5.484 207.187 115.846  0.00  0.00     0.012 A 
ATOM     14  C15  11 d          -4.336 206.397 115.685  0.00  0.00     0.037 A 
ATOM     15  C16  11 d          -3.062 206.990 115.522  0.00  0.00     0.102 A 
ATOM     16  C17  11 d          -2.979 208.401 115.547  0.00  0.00     0.037 A 
ATOM     17  C18  11 d          -4.128 209.190 115.709  0.00  0.00     0.012 A 
ATOM     18  N2   11 d          -7.609 208.820 116.970  0.00  0.00    -0.228 N 
ATOM     19  C19  11 d          -7.416 208.601 118.364  0.00  0.00     0.236 C 
ATOM     20  O4   11 d          -6.333 209.002 118.924  0.00  0.00    -0.272 OA
ATOM     21  C20  11 d          -8.477 207.960 119.206  0.00  0.00     0.119 C 
ATOM     22  N3   11 d          -8.774 208.424 116.319  0.00  0.00    -0.172 NA
ENDROOT
BRANCH  15  23
ATOM     23  N1   11 d          -1.913 206.210 115.354  0.00  0.00    -0.116 N 
ATOM     24  O2   11 d          -0.997 206.636 114.814  0.00  0.00    -0.532 OA
ATOM     25  O3   11 d          -1.789 205.108 115.956  0.00  0.00    -0.532 OA
ENDBRANCH  15  23
BRANCH   5  26
ATOM     26  O1   11 d         -11.916 206.962 110.775  0.00  0.00    -0.356 OA
ATOM     27  C6   11 d         -13.192 206.476 111.260  0.00  0.00     0.210 C 
ENDBRANCH   5  26
TORSDOF 2
ENDMDL
MODEL 4
REMARK VINA RESULT:      -7.8      2.353      3.166
REMARK  2 active torsions:
REMARK  status: ('A' for Active; 'I' for Inactive)
REMARK    1  A    between atoms: C5_5  and  O1_6 
REMARK    2  A    between atoms: C16_17  and  N1_18 
REMARK       I    between atoms: N2_23  and  C19_24 
ROOT
ATOM      1  C1   11 d          -6.768 209.432 115.014  0.00  0.00     0.072 C 
ATOM      2  C2   11 d          -8.038 209.026 114.357  0.00  0.00    -0.003 A 
ATOM      3  C3   11 d          -8.004 208.616 112.998  0.00  0.00    -0.043 A 
ATOM      4  C4   11 d          -9.184 208.133 112.398  0.00  0.00     0.044 A 
ATOM      5  C5   11 d         -10.399 208.137 113.101  0.00  0.00     0.068 A 
ATOM      6  C7   11 d         -10.426 208.548 114.441  0.00  0.00     0.037 A 
ATOM      7  C8   11 d          -9.255 208.997 115.066  0.00  0.00     0.017 A 
ATOM      8  C9   11 d          -6.693 208.531 112.236  0.00  0.00     0.040 C 
ATOM      9  C10  11 d          -5.471 208.375 113.155  0.00  0.00     0.018 C 
ATOM     10  C11  11 d          -5.481 209.459 114.251  0.00  0.00     0.070 C 
ATOM     11  C12  11 d          -4.443 209.420 115.381  0.00  0.00     0.156 C 
ATOM     12  C13  11 d          -3.737 208.082 115.537  0.00  0.00    -0.032 A 
ATOM     13  C14  11 d          -4.310 207.027 116.276  0.00  0.00     0.012 A 
ATOM     14  C15  11 d          -3.616 205.822 116.459  0.00  0.00     0.037 A 
ATOM     15  C16  11 d          -2.319 205.641 115.925  0.00  0.00     0.102 A 
ATOM     16  C17  11 d          -1.735 206.718 115.221  0.00  0.00     0.037 A 
ATOM     17  C18  11 d          -2.429 207.924 115.040  0.00  0.00     0.012 A 
ATOM     18  N2   11 d          -5.296 209.746 116.559  0.00  0.00    -0.228 N 
ATOM     19  C19  11 d          -4.803 210.085 117.852  0.00  0.00     0.236 C 
ATOM     20  O4   11 d          -3.537 210.150 118.050  0.00  0.00    -0.272 OA
ATOM     21  C20  11 d          -5.735 210.423 118.976  0.00  0.00     0.119 C 
ATOM     22  N3   11 d          -6.659 209.684 116.286  0.00  0.00    -0.172 NA
ENDROOT
BRANCH  15  23
ATOM     23  N1   11 d          -1.623 204.440 116.097  0.00  0.00    -0.116 N 
ATOM     24  O2   11 d          -0.639 204.256 115.541  0.00  0.00    -0.532 OA
ATOM     25  O3   11 d          -1.955 203.627 117.003  0.00  0.00    -0.532 OA
ENDBRANCH  15  23
BRANCH   5  26
ATOM     26  O1   11 d         -11.563 207.586 112.504  0.00  0.00    -0.356 OA
ATOM     27  C6   11 d         -12.678 207.700 113.422  0.00  0.00     0.210 C 
ENDBRANCH   5  26
TORSDOF 2
ENDMDL
MODEL 5
REMARK VINA RESULT:      -7.3      5.868      9.328
REMARK  2 active torsions:
REMARK  status: ('A' for Active; 'I' for Inactive)
REMARK    1  A    between atoms: C5_5  and  O1_6 
REMARK    2  A    between atoms: C16_17  and  N1_18 
REMARK       I    between atoms: N2_23  and  C19_24 
ROOT
ATOM      1  C1   11 d         -12.791 206.300 116.061  0.00  0.00     0.072 C 
ATOM      2  C2   11 d         -13.534 206.585 114.805  0.00  0.00    -0.003 A 
ATOM      3  C3   11 d         -14.542 205.679 114.385  0.00  0.00    -0.043 A 
ATOM      4  C4   11 d         -15.319 205.994 113.253  0.00  0.00     0.044 A 
ATOM      5  C5   11 d         -15.047 207.143 112.493  0.00  0.00     0.068 A 
ATOM      6  C7   11 d         -14.046 208.032 112.911  0.00  0.00     0.037 A 
ATOM      7  C8   11 d         -13.287 207.753 114.056  0.00  0.00     0.017 A 
ATOM      8  C9   11 d         -14.908 204.468 115.225  0.00  0.00     0.040 C 
ATOM      9  C10  11 d         -14.536 204.629 116.708  0.00  0.00     0.018 C 
ATOM     10  C11  11 d         -13.062 205.056 116.848  0.00  0.00     0.070 C 
ATOM     11  C12  11 d         -12.496 205.426 118.227  0.00  0.00     0.156 C 
ATOM     12  C13  11 d         -13.555 205.717 119.279  0.00  0.00    -0.032 A 
ATOM     13  C14  11 d         -14.156 206.987 119.391  0.00  0.00     0.012 A 
ATOM     14  C15  11 d         -15.085 207.253 120.407  0.00  0.00     0.037 A 
ATOM     15  C16  11 d         -15.427 206.263 121.357  0.00  0.00     0.102 A 
ATOM     16  C17  11 d         -14.788 205.006 121.265  0.00  0.00     0.037 A 
ATOM     17  C18  11 d         -13.857 204.741 120.248  0.00  0.00     0.012 A 
ATOM     18  N2   11 d         -11.693 206.635 117.887  0.00  0.00    -0.228 N 
ATOM     19  C19  11 d         -10.750 207.256 118.755  0.00  0.00     0.236 C 
ATOM     20  O4   11 d         -10.528 206.751 119.913  0.00  0.00    -0.272 OA
ATOM     21  C20  11 d          -9.968 208.458 118.322  0.00  0.00     0.119 C 
ATOM     22  N3   11 d         -11.955 207.130 116.613  0.00  0.00    -0.172 NA
ENDROOT
BRANCH  15  23
ATOM     23  N1   11 d         -16.357 206.517 122.370  0.00  0.00    -0.116 N 
ATOM     24  O2   11 d         -17.443 206.773 122.110  0.00  0.00    -0.532 OA
ATOM     25  O3   11 d         -16.076 206.282 123.577  0.00  0.00    -0.532 OA
ENDBRANCH  15  23
BRANCH   5  26
ATOM     26  O1   11 d         -15.881 207.479 111.395  0.00  0.00    -0.356 OA
ATOM     27  C6   11 d         -15.220 207.119 110.157  0.00  0.00     0.210 C 
ENDBRANCH   5  26
TORSDOF 2
ENDMDL
MODEL 6
REMARK VINA RESULT:      -6.9     12.348     14.831
REMARK  2 active torsions:
REMARK  status: ('A' for Active; 'I' for Inactive)
REMARK    1  A    between atoms: C5_5  and  O1_6 
REMARK    2  A    between atoms: C16_17  and  N1_18 
REMARK       I    between atoms: N2_23  and  C19_24 
ROOT
ATOM      1  C1   11 d         -19.933 204.092 123.742  0.00  0.00     0.072 C 
ATOM      2  C2   11 d         -20.472 202.709 123.671  0.00  0.00    -0.003 A 
ATOM      3  C3   11 d         -20.812 202.171 122.402  0.00  0.00    -0.043 A 
ATOM      4  C4   11 d         -21.226 200.827 122.315  0.00  0.00     0.044 A 
ATOM      5  C5   11 d         -21.387 200.050 123.473  0.00  0.00     0.068 A 
ATOM      6  C7   11 d         -21.054 200.589 124.724  0.00  0.00     0.037 A 
ATOM      7  C8   11 d         -20.606 201.913 124.827  0.00  0.00     0.017 A 
ATOM      8  C9   11 d         -20.578 202.961 121.127  0.00  0.00     0.040 C 
ATOM      9  C10  11 d         -19.500 204.046 121.279  0.00  0.00     0.018 C 
ATOM     10  C11  11 d         -19.796 204.928 122.508  0.00  0.00     0.070 C 
ATOM     11  C12  11 d         -18.780 205.988 122.957  0.00  0.00     0.156 C 
ATOM     12  C13  11 d         -17.386 205.803 122.377  0.00  0.00    -0.032 A 
ATOM     13  C14  11 d         -16.452 204.926 122.965  0.00  0.00     0.012 A 
ATOM     14  C15  11 d         -15.152 204.816 122.451  0.00  0.00     0.037 A 
ATOM     15  C16  11 d         -14.738 205.595 121.346  0.00  0.00     0.102 A 
ATOM     16  C17  11 d         -15.667 206.503 120.789  0.00  0.00     0.037 A 
ATOM     17  C18  11 d         -16.967 206.614 121.305  0.00  0.00     0.012 A 
ATOM     18  N2   11 d         -18.804 205.795 124.435  0.00  0.00    -0.228 N 
ATOM     19  C19  11 d         -18.223 206.686 125.382  0.00  0.00     0.236 C 
ATOM     20  O4   11 d         -17.651 207.758 124.974  0.00  0.00    -0.272 OA
ATOM     21  C20  11 d         -18.316 206.424 126.855  0.00  0.00     0.119 C 
ATOM     22  N3   11 d         -19.456 204.629 124.827  0.00  0.00    -0.172 NA
ENDROOT
BRANCH  15  23
ATOM     23  N1   11 d         -13.445 205.487 120.823  0.00  0.00    -0.116 N 
ATOM     24  O2   11 d         -13.270 205.548 119.693  0.00  0.00    -0.532 OA
ATOM     25  O3   11 d         -12.438 205.516 121.583  0.00  0.00    -0.532 OA
ENDBRANCH  15  23
BRANCH   5  26
ATOM     26  O1   11 d         -21.741 198.680 123.362  0.00  0.00    -0.356 OA
ATOM     27  C6   11 d         -21.198 198.137 122.134  0.00  0.00     0.210 C 
ENDBRANCH   5  26
TORSDOF 2
ENDMDL
MODEL 7
REMARK VINA RESULT:      -6.9      4.704      6.878
REMARK  2 active torsions:
REMARK  status: ('A' for Active; 'I' for Inactive)
REMARK    1  A    between atoms: C5_5  and  O1_6 
REMARK    2  A    between atoms: C16_17  and  N1_18 
REMARK       I    between atoms: N2_23  and  C19_24 
ROOT
ATOM      1  C1   11 d          -5.477 208.185 116.567  0.00  0.00     0.072 C 
ATOM      2  C2   11 d          -4.923 208.082 115.191  0.00  0.00    -0.003 A 
ATOM      3  C3   11 d          -5.126 209.159 114.289  0.00  0.00    -0.043 A 
ATOM      4  C4   11 d          -4.518 209.114 113.019  0.00  0.00     0.044 A 
ATOM      5  C5   11 d          -3.794 207.983 112.610  0.00  0.00     0.068 A 
ATOM      6  C7   11 d          -3.602 206.920 113.505  0.00  0.00     0.037 A 
ATOM      7  C8   11 d          -4.169 206.963 114.785  0.00  0.00     0.017 A 
ATOM      8  C9   11 d          -5.840 210.426 114.727  0.00  0.00     0.040 C 
ATOM      9  C10  11 d          -5.800 210.645 116.248  0.00  0.00     0.018 C 
ATOM     10  C11  11 d          -6.277 209.379 116.985  0.00  0.00     0.070 C 
ATOM     11  C12  11 d          -6.185 209.299 118.516  0.00  0.00     0.156 C 
ATOM     12  C13  11 d          -5.259 210.331 119.141  0.00  0.00    -0.032 A 
ATOM     13  C14  11 d          -3.869 210.117 119.231  0.00  0.00     0.012 A 
ATOM     14  C15  11 d          -3.040 211.054 119.866  0.00  0.00     0.037 A 
ATOM     15  C16  11 d          -3.578 212.224 120.450  0.00  0.00     0.102 A 
ATOM     16  C17  11 d          -4.979 212.409 120.393  0.00  0.00     0.037 A 
ATOM     17  C18  11 d          -5.807 211.471 119.759  0.00  0.00     0.012 A 
ATOM     18  N2   11 d          -5.680 207.908 118.696  0.00  0.00    -0.228 N 
ATOM     19  C19  11 d          -5.639 207.211 119.938  0.00  0.00     0.236 C 
ATOM     20  O4   11 d          -6.084 207.780 120.997  0.00  0.00    -0.272 OA
ATOM     21  C20  11 d          -5.135 205.802 120.023  0.00  0.00     0.119 C 
ATOM     22  N3   11 d          -5.229 207.328 117.513  0.00  0.00    -0.172 NA
ENDROOT
BRANCH  15  23
ATOM     23  N1   11 d          -2.759 213.166 121.079  0.00  0.00    -0.116 N 
ATOM     24  O2   11 d          -2.454 213.030 122.175  0.00  0.00    -0.532 OA
ATOM     25  O3   11 d          -2.185 214.069 120.411  0.00  0.00    -0.532 OA
ENDBRANCH  15  23
BRANCH   5  26
ATOM     26  O1   11 d          -3.133 207.981 111.354  0.00  0.00    -0.356 OA
ATOM     27  C6   11 d          -2.132 209.027 111.332  0.00  0.00     0.210 C 
ENDBRANCH   5  26
TORSDOF 2
ENDMDL
MODEL 8
REMARK VINA RESULT:      -6.7      4.571      7.695
REMARK  2 active torsions:
REMARK  status: ('A' for Active; 'I' for Inactive)
REMARK    1  A    between atoms: C5_5  and  O1_6 
REMARK    2  A    between atoms: C16_17  and  N1_18 
REMARK       I    between atoms: N2_23  and  C19_24 
ROOT
ATOM      1  C1   11 d          -4.881 208.711 117.376  0.00  0.00     0.072 C 
ATOM      2  C2   11 d          -4.513 208.582 115.941  0.00  0.00    -0.003 A 
ATOM      3  C3   11 d          -4.231 207.292 115.420  0.00  0.00    -0.043 A 
ATOM      4  C4   11 d          -3.983 207.148 114.041  0.00  0.00     0.044 A 
ATOM      5  C5   11 d          -3.924 208.272 113.202  0.00  0.00     0.068 A 
ATOM      6  C7   11 d          -4.198 209.544 113.724  0.00  0.00     0.037 A 
ATOM      7  C8   11 d          -4.484 209.702 115.087  0.00  0.00     0.017 A 
ATOM      8  C9   11 d          -4.359 206.051 116.287  0.00  0.00     0.040 C 
ATOM      9  C10  11 d          -5.300 206.248 117.487  0.00  0.00     0.018 C 
ATOM     10  C11  11 d          -4.908 207.514 118.273  0.00  0.00     0.070 C 
ATOM     11  C12  11 d          -5.792 208.006 119.428  0.00  0.00     0.156 C 
ATOM     12  C13  11 d          -7.194 207.417 119.438  0.00  0.00    -0.032 A 
ATOM     13  C14  11 d          -8.231 207.964 118.656  0.00  0.00     0.012 A 
ATOM     14  C15  11 d          -9.531 207.444 118.726  0.00  0.00     0.037 A 
ATOM     15  C16  11 d          -9.841 206.373 119.596  0.00  0.00     0.102 A 
ATOM     16  C17  11 d          -8.805 205.857 120.408  0.00  0.00     0.037 A 
ATOM     17  C18  11 d          -7.504 206.379 120.338  0.00  0.00     0.012 A 
ATOM     18  N2   11 d          -5.801 209.474 119.171  0.00  0.00    -0.228 N 
ATOM     19  C19  11 d          -6.276 210.458 120.085  0.00  0.00     0.236 C 
ATOM     20  O4   11 d          -6.712 210.094 121.236  0.00  0.00    -0.272 OA
ATOM     21  C20  11 d          -6.226 211.918 119.752  0.00  0.00     0.119 C 
ATOM     22  N3   11 d          -5.298 209.817 117.919  0.00  0.00    -0.172 NA
ENDROOT
BRANCH  15  23
ATOM     23  N1   11 d         -11.133 205.844 119.666  0.00  0.00    -0.116 N 
ATOM     24  O2   11 d         -11.638 205.680 120.682  0.00  0.00    -0.532 OA
ATOM     25  O3   11 d         -11.837 205.720 118.627  0.00  0.00    -0.532 OA
ENDBRANCH  15  23
BRANCH   5  26
ATOM     26  O1   11 d          -3.737 208.103 111.805  0.00  0.00    -0.356 OA
ATOM     27  C6   11 d          -2.625 208.920 111.363  0.00  0.00     0.210 C 
ENDBRANCH   5  26
TORSDOF 2
ENDMDL
MODEL 9
REMARK VINA RESULT:      -6.6      4.297      9.007
REMARK  2 active torsions:
REMARK  status: ('A' for Active; 'I' for Inactive)
REMARK    1  A    between atoms: C5_5  and  O1_6 
REMARK    2  A    between atoms: C16_17  and  N1_18 
REMARK       I    between atoms: N2_23  and  C19_24 
ROOT
ATOM      1  C1   11 d          -8.141 207.448 118.096  0.00  0.00     0.072 C 
ATOM      2  C2   11 d          -7.039 206.583 118.595  0.00  0.00    -0.003 A 
ATOM      3  C3   11 d          -7.151 206.009 119.888  0.00  0.00    -0.043 A 
ATOM      4  C4   11 d          -6.161 205.108 120.327  0.00  0.00     0.044 A 
ATOM      5  C5   11 d          -5.030 204.845 119.538  0.00  0.00     0.068 A 
ATOM      6  C7   11 d          -4.923 205.419 118.263  0.00  0.00     0.037 A 
ATOM      7  C8   11 d          -5.917 206.290 117.794  0.00  0.00     0.017 A 
ATOM      8  C9   11 d          -8.396 206.216 120.733  0.00  0.00     0.040 C 
ATOM      9  C10  11 d          -9.637 206.574 119.900  0.00  0.00     0.018 C 
ATOM     10  C11  11 d          -9.328 207.752 118.956  0.00  0.00     0.070 C 
ATOM     11  C12  11 d         -10.365 208.196 117.915  0.00  0.00     0.156 C 
ATOM     12  C13  11 d         -11.457 207.173 117.645  0.00  0.00    -0.032 A 
ATOM     13  C14  11 d         -11.269 206.114 116.733  0.00  0.00     0.012 A 
ATOM     14  C15  11 d         -12.309 205.217 116.452  0.00  0.00     0.037 A 
ATOM     15  C16  11 d         -13.579 205.363 117.058  0.00  0.00     0.102 A 
ATOM     16  C17  11 d         -13.773 206.452 117.938  0.00  0.00     0.037 A 
ATOM     17  C18  11 d         -12.731 207.350 118.218  0.00  0.00     0.012 A 
ATOM     18  N2   11 d          -9.494 208.417 116.725  0.00  0.00    -0.228 N 
ATOM     19  C19  11 d          -9.902 209.074 115.529  0.00  0.00     0.236 C 
ATOM     20  O4   11 d         -11.090 209.548 115.441  0.00  0.00    -0.272 OA
ATOM     21  C20  11 d          -8.951 209.273 114.388  0.00  0.00     0.119 C 
ATOM     22  N3   11 d          -8.210 207.903 116.880  0.00  0.00    -0.172 NA
ENDROOT
BRANCH  15  23
ATOM     23  N1   11 d         -14.620 204.470 116.789  0.00  0.00    -0.116 N 
ATOM     24  O2   11 d         -15.283 204.612 115.865  0.00  0.00    -0.532 OA
ATOM     25  O3   11 d         -14.729 203.392 117.437  0.00  0.00    -0.532 OA
ENDBRANCH  15  23
BRANCH   5  26
ATOM     26  O1   11 d          -4.076 203.885 119.965  0.00  0.00    -0.356 OA
ATOM     27  C6   11 d          -4.620 203.120 121.069  0.00  0.00     0.210 C 
ENDBRANCH   5  26
TORSDOF 2
ENDMDL
MODEL 10
REMARK VINA RESULT:      -6.5      3.583      8.854
REMARK  2 active torsions:
REMARK  status: ('A' for Active; 'I' for Inactive)
REMARK    1  A    between atoms: C5_5  and  O1_6 
REMARK    2  A    between atoms: C16_17  and  N1_18 
REMARK       I    between atoms: N2_23  and  C19_24 
ROOT
ATOM      1  C1   11 d          -9.070 208.430 116.572  0.00  0.00     0.072 C 
ATOM      2  C2   11 d          -7.782 208.213 117.282  0.00  0.00    -0.003 A 
ATOM      3  C3   11 d          -7.739 208.384 118.691  0.00  0.00    -0.043 A 
ATOM      4  C4   11 d          -6.551 208.081 119.383  0.00  0.00     0.044 A 
ATOM      5  C5   11 d          -5.393 207.701 118.687  0.00  0.00     0.068 A 
ATOM      6  C7   11 d          -5.440 207.538 117.294  0.00  0.00     0.037 A 
ATOM      7  C8   11 d          -6.625 207.800 116.593  0.00  0.00     0.017 A 
ATOM      8  C9   11 d          -8.993 208.723 119.478  0.00  0.00     0.040 C 
ATOM      9  C10  11 d         -10.288 208.318 118.754  0.00  0.00     0.018 C 
ATOM     10  C11  11 d         -10.293 208.870 117.315  0.00  0.00     0.070 C 
ATOM     11  C12  11 d         -11.412 208.472 116.343  0.00  0.00     0.156 C 
ATOM     12  C13  11 d         -12.207 207.249 116.772  0.00  0.00    -0.032 A 
ATOM     13  C14  11 d         -11.757 205.941 116.497  0.00  0.00     0.012 A 
ATOM     14  C15  11 d         -12.534 204.828 116.846  0.00  0.00     0.037 A 
ATOM     15  C16  11 d         -13.797 204.986 117.463  0.00  0.00     0.102 A 
ATOM     16  C17  11 d         -14.260 206.301 117.697  0.00  0.00     0.037 A 
ATOM     17  C18  11 d         -13.482 207.415 117.346  0.00  0.00     0.012 A 
ATOM     18  N2   11 d         -10.631 208.227 115.097  0.00  0.00    -0.228 N 
ATOM     19  C19  11 d         -11.197 208.062 113.801  0.00  0.00     0.236 C 
ATOM     20  O4   11 d         -12.467 208.150 113.649  0.00  0.00    -0.272 OA
ATOM     21  C20  11 d         -10.332 207.842 112.597  0.00  0.00     0.119 C 
ATOM     22  N3   11 d          -9.257 208.162 115.313  0.00  0.00    -0.172 NA
ENDROOT
BRANCH  15  23
ATOM     23  N1   11 d         -14.575 203.882 117.821  0.00  0.00    -0.116 N 
ATOM     24  O2   11 d         -14.663 202.981 117.118  0.00  0.00    -0.532 OA
ATOM     25  O3   11 d         -15.033 203.768 118.991  0.00  0.00    -0.532 OA
ENDBRANCH  15  23
BRANCH   5  26
ATOM     26  O1   11 d          -4.223 207.336 119.404  0.00  0.00    -0.356 OA
ATOM     27  C6   11 d          -4.553 206.323 120.386  0.00  0.00     0.210 C 
ENDBRANCH   5  26
TORSDOF 2
ENDMDL
