MODEL 1
REMARK VINA RESULT:      -7.1      0.000      0.000
REMARK  7 active torsions:
REMARK  status: ('A' for Active; 'I' for Inactive)
REMARK    1  A    between atoms: C1_1  and  O2_3 
REMARK    2  A    between atoms: C1_1  and  C4_6 
REMARK    3  A    between atoms: O2_3  and  C2_4 
REMARK    4  A    between atoms: C4_6  and  N1_7 
REMARK    5  A    between atoms: C4_6  and  C7_11 
REMARK       I    between atoms: N1_7  and  C5_8 
REMARK    6  A    between atoms: C7_11  and  C8_12 
REMARK    7  A    between atoms: C11_15  and  O4_18 
ROOT
ATOM      1  C4   11 d           7.495  45.978  51.972  0.00  0.00     0.188 C 
ENDROOT
BRANCH   1   2
ATOM      2  C1   11 d           8.947  46.433  51.903  0.00  0.00     0.282 C 
ATOM      3  O1   11 d           9.819  45.675  51.405  0.00  0.00    -0.263 OA
BRANCH   2   4
ATOM      4  O2   11 d           9.381  47.598  52.590  0.00  0.00    -0.320 OA
BRANCH   4   5
ATOM      5  C2   11 d           9.780  47.236  53.936  0.00  0.00     0.174 C 
ATOM      6  C3   11 d           9.187  48.232  54.918  0.00  0.00     0.034 C 
ENDBRANCH   4   5
ENDBRANCH   2   4
ENDBRANCH   1   2
BRANCH   1   7
ATOM      7  N1   11 d           6.602  47.023  52.577  0.00  0.00    -0.347 N 
ATOM      8  C5   11 d           5.976  46.832  53.842  0.00  0.00     0.214 C 
ATOM      9  O3   11 d           6.172  45.751  54.500  0.00  0.00    -0.274 OA
ATOM     10  C6   11 d           5.075  47.878  54.420  0.00  0.00     0.117 C 
ATOM     11  H7   11 d           6.425  47.938  52.039  0.00  0.00     0.163 HD
ENDBRANCH   1   7
BRANCH   1  12
ATOM     12  C7   11 d           6.882  45.574  50.612  0.00  0.00     0.074 C 
BRANCH  12  13
ATOM     13  C8   11 d           6.099  44.281  50.609  0.00  0.00    -0.056 A 
ATOM     14  C9   11 d           4.911  44.166  51.362  0.00  0.00     0.010 A 
ATOM     15  C10  11 d           4.195  42.959  51.380  0.00  0.00     0.037 A 
ATOM     16  C11  11 d           4.663  41.851  50.661  0.00  0.00     0.065 A 
ATOM     17  C12  11 d           5.827  41.965  49.887  0.00  0.00     0.037 A 
ATOM     18  C13  11 d           6.554  43.166  49.877  0.00  0.00     0.010 A 
BRANCH  16  19
ATOM     19  O4   11 d           3.899  40.664  50.615  0.00  0.00    -0.361 OA
ATOM     20  H17  11 d           3.853  40.337  51.596  0.00  0.00     0.217 HD
ENDBRANCH  16  19
ENDBRANCH  12  13
ENDBRANCH   1  12
TORSDOF 7
ENDMDL
MODEL 2
REMARK VINA RESULT:      -7.0      1.675      2.542
REMARK  7 active torsions:
REMARK  status: ('A' for Active; 'I' for Inactive)
REMARK    1  A    between atoms: C1_1  and  O2_3 
REMARK    2  A    between atoms: C1_1  and  C4_6 
REMARK    3  A    between atoms: O2_3  and  C2_4 
REMARK    4  A    between atoms: C4_6  and  N1_7 
REMARK    5  A    between atoms: C4_6  and  C7_11 
REMARK       I    between atoms: N1_7  and  C5_8 
REMARK    6  A    between atoms: C7_11  and  C8_12 
REMARK    7  A    between atoms: C11_15  and  O4_18 
ROOT
ATOM      1  C4   11 d           6.383  46.442  53.200  0.00  0.00     0.188 C 
ENDROOT
BRANCH   1   2
ATOM      2  C1   11 d           7.240  47.590  53.719  0.00  0.00     0.282 C 
ATOM      3  O1   11 d           6.881  48.228  54.742  0.00  0.00    -0.263 OA
BRANCH   2   4
ATOM      4  O2   11 d           8.316  48.105  52.949  0.00  0.00    -0.320 OA
BRANCH   4   5
ATOM      5  C2   11 d           9.522  47.363  53.260  0.00  0.00     0.174 C 
ATOM      6  C3   11 d           9.972  46.599  52.026  0.00  0.00     0.034 C 
ENDBRANCH   4   5
ENDBRANCH   2   4
ENDBRANCH   1   2
BRANCH   1   7
ATOM      7  N1   11 d           5.001  46.456  53.788  0.00  0.00    -0.347 N 
ATOM      8  C5   11 d           4.556  45.436  54.676  0.00  0.00     0.214 C 
ATOM      9  O3   11 d           5.340  44.478  55.001  0.00  0.00    -0.274 OA
ATOM     10  C6   11 d           3.168  45.458  55.237  0.00  0.00     0.117 C 
ATOM     11  H7   11 d           4.327  47.253  53.526  0.00  0.00     0.163 HD
ENDBRANCH   1   7
BRANCH   1  12
ATOM     12  C7   11 d           6.234  46.395  51.663  0.00  0.00     0.074 C 
BRANCH  12  13
ATOM     13  C8   11 d           6.317  45.019  51.042  0.00  0.00    -0.056 A 
ATOM     14  C9   11 d           7.401  44.680  50.205  0.00  0.00     0.010 A 
ATOM     15  C10  11 d           7.469  43.411  49.608  0.00  0.00     0.037 A 
ATOM     16  C11  11 d           6.450  42.474  49.827  0.00  0.00     0.065 A 
ATOM     17  C12  11 d           5.384  42.792  50.681  0.00  0.00     0.037 A 
ATOM     18  C13  11 d           5.305  44.064  51.270  0.00  0.00     0.010 A 
BRANCH  16  19
ATOM     19  O4   11 d           6.560  41.172  49.292  0.00  0.00    -0.361 OA
ATOM     20  H17  11 d           7.565  40.937  49.367  0.00  0.00     0.217 HD
ENDBRANCH  16  19
ENDBRANCH  12  13
ENDBRANCH   1  12
TORSDOF 7
ENDMDL
MODEL 3
REMARK VINA RESULT:      -6.8      1.998      5.955
REMARK  7 active torsions:
REMARK  status: ('A' for Active; 'I' for Inactive)
REMARK    1  A    between atoms: C1_1  and  O2_3 
REMARK    2  A    between atoms: C1_1  and  C4_6 
REMARK    3  A    between atoms: O2_3  and  C2_4 
REMARK    4  A    between atoms: C4_6  and  N1_7 
REMARK    5  A    between atoms: C4_6  and  C7_11 
REMARK       I    between atoms: N1_7  and  C5_8 
REMARK    6  A    between atoms: C7_11  and  C8_12 
REMARK    7  A    between atoms: C11_15  and  O4_18 
ROOT
ATOM      1  C4   11 d           6.723  45.715  51.342  0.00  0.00     0.188 C 
ENDROOT
BRANCH   1   2
ATOM      2  C1   11 d           6.818  44.536  50.382  0.00  0.00     0.282 C 
ATOM      3  O1   11 d           7.833  44.401  49.652  0.00  0.00    -0.263 OA
BRANCH   2   4
ATOM      4  O2   11 d           5.692  43.708  50.128  0.00  0.00    -0.320 OA
BRANCH   4   5
ATOM      5  C2   11 d           6.144  42.356  49.867  0.00  0.00     0.174 C 
ATOM      6  C3   11 d           5.116  41.372  50.399  0.00  0.00     0.034 C 
ENDBRANCH   4   5
ENDBRANCH   2   4
ENDBRANCH   1   2
BRANCH   1   7
ATOM      7  N1   11 d           6.589  45.273  52.772  0.00  0.00    -0.347 N 
ATOM      8  C5   11 d           5.335  45.285  53.444  0.00  0.00     0.214 C 
ATOM      9  O3   11 d           4.279  45.672  52.831  0.00  0.00    -0.274 OA
ATOM     10  C6   11 d           5.225  44.859  54.875  0.00  0.00     0.117 C 
ATOM     11  H7   11 d           7.465  44.945  53.303  0.00  0.00     0.163 HD
ENDBRANCH   1   7
BRANCH   1  12
ATOM     12  C7   11 d           7.911  46.701  51.269  0.00  0.00     0.074 C 
BRANCH  12  13
ATOM     13  C8   11 d           8.359  47.280  52.593  0.00  0.00    -0.056 A 
ATOM     14  C9   11 d           7.657  48.357  53.173  0.00  0.00     0.010 A 
ATOM     15  C10  11 d           8.084  48.911  54.389  0.00  0.00     0.037 A 
ATOM     16  C11  11 d           9.225  48.409  55.030  0.00  0.00     0.065 A 
ATOM     17  C12  11 d           9.912  47.320  54.476  0.00  0.00     0.037 A 
ATOM     18  C13  11 d           9.496  46.770  53.253  0.00  0.00     0.010 A 
BRANCH  16  19
ATOM     19  O4   11 d           9.606  48.914  56.293  0.00  0.00    -0.361 OA
ATOM     20  H17  11 d          10.041  49.832  56.093  0.00  0.00     0.217 HD
ENDBRANCH  16  19
ENDBRANCH  12  13
ENDBRANCH   1  12
TORSDOF 7
ENDMDL
MODEL 4
REMARK VINA RESULT:      -6.8      2.266      4.326
REMARK  7 active torsions:
REMARK  status: ('A' for Active; 'I' for Inactive)
REMARK    1  A    between atoms: C1_1  and  O2_3 
REMARK    2  A    between atoms: C1_1  and  C4_6 
REMARK    3  A    between atoms: O2_3  and  C2_4 
REMARK    4  A    between atoms: C4_6  and  N1_7 
REMARK    5  A    between atoms: C4_6  and  C7_11 
REMARK       I    between atoms: N1_7  and  C5_8 
REMARK    6  A    between atoms: C7_11  and  C8_12 
REMARK    7  A    between atoms: C11_15  and  O4_18 
ROOT
ATOM      1  C4   11 d           4.833  45.886  53.444  0.00  0.00     0.188 C 
ENDROOT
BRANCH   1   2
ATOM      2  C1   11 d           5.063  46.913  54.545  0.00  0.00     0.282 C 
ATOM      3  O1   11 d           4.100  47.604  54.970  0.00  0.00    -0.263 OA
BRANCH   2   4
ATOM      4  O2   11 d           6.376  47.271  54.948  0.00  0.00    -0.320 OA
BRANCH   4   5
ATOM      5  C2   11 d           6.563  48.695  54.756  0.00  0.00     0.174 C 
ATOM      6  C3   11 d           8.041  48.983  54.549  0.00  0.00     0.034 C 
ENDBRANCH   4   5
ENDBRANCH   2   4
ENDBRANCH   1   2
BRANCH   1   7
ATOM      7  N1   11 d           3.404  45.423  53.391  0.00  0.00    -0.347 N 
ATOM      8  C5   11 d           3.065  44.082  53.054  0.00  0.00     0.214 C 
ATOM      9  O3   11 d           3.985  43.231  52.793  0.00  0.00    -0.274 OA
ATOM     10  C6   11 d           1.635  43.644  52.988  0.00  0.00     0.117 C 
ATOM     11  H7   11 d           2.617  46.123  53.607  0.00  0.00     0.163 HD
ENDBRANCH   1   7
BRANCH   1  12
ATOM     12  C7   11 d           5.219  46.364  52.027  0.00  0.00     0.074 C 
BRANCH  12  13
ATOM     13  C8   11 d           6.541  45.850  51.504  0.00  0.00    -0.056 A 
ATOM     14  C9   11 d           7.754  46.402  51.968  0.00  0.00     0.010 A 
ATOM     15  C10  11 d           8.982  45.943  51.467  0.00  0.00     0.037 A 
ATOM     16  C11  11 d           9.013  44.942  50.486  0.00  0.00     0.065 A 
ATOM     17  C12  11 d           7.814  44.368  50.040  0.00  0.00     0.037 A 
ATOM     18  C13  11 d           6.583  44.832  50.529  0.00  0.00     0.010 A 
BRANCH  16  19
ATOM     19  O4   11 d          10.249  44.425  50.042  0.00  0.00    -0.361 OA
ATOM     20  H17  11 d          10.180  43.403  50.190  0.00  0.00     0.217 HD
ENDBRANCH  16  19
ENDBRANCH  12  13
ENDBRANCH   1  12
TORSDOF 7
ENDMDL
MODEL 5
REMARK VINA RESULT:      -6.7      1.988      4.295
REMARK  7 active torsions:
REMARK  status: ('A' for Active; 'I' for Inactive)
REMARK    1  A    between atoms: C1_1  and  O2_3 
REMARK    2  A    between atoms: C1_1  and  C4_6 
REMARK    3  A    between atoms: O2_3  and  C2_4 
REMARK    4  A    between atoms: C4_6  and  N1_7 
REMARK    5  A    between atoms: C4_6  and  C7_11 
REMARK       I    between atoms: N1_7  and  C5_8 
REMARK    6  A    between atoms: C7_11  and  C8_12 
REMARK    7  A    between atoms: C11_15  and  O4_18 
ROOT
ATOM      1  C4   11 d           5.873  46.814  54.188  0.00  0.00     0.188 C 
ENDROOT
BRANCH   1   2
ATOM      2  C1   11 d           5.153  45.822  55.093  0.00  0.00     0.282 C 
ATOM      3  O1   11 d           5.615  44.662  55.245  0.00  0.00    -0.263 OA
BRANCH   2   4
ATOM      4  O2   11 d           3.852  46.098  55.591  0.00  0.00    -0.320 OA
BRANCH   4   5
ATOM      5  C2   11 d           2.890  45.259  54.904  0.00  0.00     0.174 C 
ATOM      6  C3   11 d           1.931  46.136  54.117  0.00  0.00     0.034 C 
ENDBRANCH   4   5
ENDBRANCH   2   4
ENDBRANCH   1   2
BRANCH   1   7
ATOM      7  N1   11 d           7.351  46.549  54.120  0.00  0.00    -0.347 N 
ATOM      8  C5   11 d           8.301  47.609  54.111  0.00  0.00     0.214 C 
ATOM      9  O3   11 d           7.909  48.826  54.169  0.00  0.00    -0.274 OA
ATOM     10  C6   11 d           9.768  47.324  54.024  0.00  0.00     0.117 C 
ATOM     11  H7   11 d           7.700  45.533  54.070  0.00  0.00     0.163 HD
ENDBRANCH   1   7
BRANCH   1  12
ATOM     12  C7   11 d           5.343  46.866  52.738  0.00  0.00     0.074 C 
BRANCH  12  13
ATOM     13  C8   11 d           5.804  45.743  51.836  0.00  0.00    -0.056 A 
ATOM     14  C9   11 d           6.961  45.896  51.044  0.00  0.00     0.010 A 
ATOM     15  C10  11 d           7.378  44.865  50.187  0.00  0.00     0.037 A 
ATOM     16  C11  11 d           6.636  43.679  50.100  0.00  0.00     0.065 A 
ATOM     17  C12  11 d           5.501  43.507  50.905  0.00  0.00     0.037 A 
ATOM     18  C13  11 d           5.073  44.540  51.753  0.00  0.00     0.010 A 
BRANCH  16  19
ATOM     19  O4   11 d           7.101  42.612  49.300  0.00  0.00    -0.361 OA
ATOM     20  H17  11 d           8.086  42.473  49.586  0.00  0.00     0.217 HD
ENDBRANCH  16  19
ENDBRANCH  12  13
ENDBRANCH   1  12
TORSDOF 7
ENDMDL
MODEL 6
REMARK VINA RESULT:      -6.5      2.147      6.146
REMARK  7 active torsions:
REMARK  status: ('A' for Active; 'I' for Inactive)
REMARK    1  A    between atoms: C1_1  and  O2_3 
REMARK    2  A    between atoms: C1_1  and  C4_6 
REMARK    3  A    between atoms: O2_3  and  C2_4 
REMARK    4  A    between atoms: C4_6  and  N1_7 
REMARK    5  A    between atoms: C4_6  and  C7_11 
REMARK       I    between atoms: N1_7  and  C5_8 
REMARK    6  A    between atoms: C7_11  and  C8_12 
REMARK    7  A    between atoms: C11_15  and  O4_18 
ROOT
ATOM      1  C4   11 d           5.583  44.751  52.441  0.00  0.00     0.188 C 
ENDROOT
BRANCH   1   2
ATOM      2  C1   11 d           4.855  44.784  53.778  0.00  0.00     0.282 C 
ATOM      3  O1   11 d           5.462  44.459  54.831  0.00  0.00    -0.263 OA
BRANCH   2   4
ATOM      4  O2   11 d           3.447  44.955  53.839  0.00  0.00    -0.320 OA
BRANCH   4   5
ATOM      5  C2   11 d           3.149  46.311  54.256  0.00  0.00     0.174 C 
ATOM      6  C3   11 d           2.739  47.130  53.044  0.00  0.00     0.034 C 
ENDBRANCH   4   5
ENDBRANCH   2   4
ENDBRANCH   1   2
BRANCH   1   7
ATOM      7  N1   11 d           4.714  44.221  51.335  0.00  0.00    -0.347 N 
ATOM      8  C5   11 d           5.185  43.238  50.420  0.00  0.00     0.214 C 
ATOM      9  O3   11 d           6.373  42.774  50.527  0.00  0.00    -0.274 OA
ATOM     10  C6   11 d           4.310  42.736  49.314  0.00  0.00     0.117 C 
ATOM     11  H7   11 d           3.713  44.599  51.229  0.00  0.00     0.163 HD
ENDBRANCH   1   7
BRANCH   1  12
ATOM     12  C7   11 d           6.143  46.114  51.979  0.00  0.00     0.074 C 
BRANCH  12  13
ATOM     13  C8   11 d           7.026  46.828  52.977  0.00  0.00    -0.056 A 
ATOM     14  C9   11 d           6.491  47.834  53.809  0.00  0.00     0.010 A 
ATOM     15  C10  11 d           7.313  48.515  54.720  0.00  0.00     0.037 A 
ATOM     16  C11  11 d           8.679  48.212  54.799  0.00  0.00     0.065 A 
ATOM     17  C12  11 d           9.214  47.194  53.996  0.00  0.00     0.037 A 
ATOM     18  C13  11 d           8.398  46.519  53.075  0.00  0.00     0.010 A 
BRANCH  16  19
ATOM     19  O4   11 d           9.488  48.840  55.772  0.00  0.00    -0.361 OA
ATOM     20  H17  11 d          10.443  48.830  55.373  0.00  0.00     0.217 HD
ENDBRANCH  16  19
ENDBRANCH  12  13
ENDBRANCH   1  12
TORSDOF 7
ENDMDL
MODEL 7
REMARK VINA RESULT:      -6.4      2.496      4.027
REMARK  7 active torsions:
REMARK  status: ('A' for Active; 'I' for Inactive)
REMARK    1  A    between atoms: C1_1  and  O2_3 
REMARK    2  A    between atoms: C1_1  and  C4_6 
REMARK    3  A    between atoms: O2_3  and  C2_4 
REMARK    4  A    between atoms: C4_6  and  N1_7 
REMARK    5  A    between atoms: C4_6  and  C7_11 
REMARK       I    between atoms: N1_7  and  C5_8 
REMARK    6  A    between atoms: C7_11  and  C8_12 
REMARK    7  A    between atoms: C11_15  and  O4_18 
ROOT
ATOM      1  C4   11 d           4.486  44.973  53.738  0.00  0.00     0.188 C 
ENDROOT
BRANCH   1   2
ATOM      2  C1   11 d           5.544  45.350  54.767  0.00  0.00     0.282 C 
ATOM      3  O1   11 d           5.496  44.860  55.925  0.00  0.00    -0.263 OA
BRANCH   2   4
ATOM      4  O2   11 d           6.453  46.414  54.524  0.00  0.00    -0.320 OA
BRANCH   4   5
ATOM      5  C2   11 d           5.810  47.673  54.845  0.00  0.00     0.174 C 
ATOM      6  C3   11 d           6.741  48.817  54.480  0.00  0.00     0.034 C 
ENDBRANCH   4   5
ENDBRANCH   2   4
ENDBRANCH   1   2
BRANCH   1   7
ATOM      7  N1   11 d           3.093  45.246  54.231  0.00  0.00    -0.347 N 
ATOM      8  C5   11 d           2.007  44.379  53.924  0.00  0.00     0.214 C 
ATOM      9  O3   11 d           2.201  43.329  53.217  0.00  0.00    -0.274 OA
ATOM     10  C6   11 d           0.623  44.679  54.409  0.00  0.00     0.117 C 
ATOM     11  H7   11 d           2.910  46.124  54.826  0.00  0.00     0.163 HD
ENDBRANCH   1   7
BRANCH   1  12
ATOM     12  C7   11 d           4.641  45.673  52.370  0.00  0.00     0.074 C 
BRANCH  12  13
ATOM     13  C8   11 d           5.685  45.082  51.450  0.00  0.00    -0.056 A 
ATOM     14  C9   11 d           5.485  43.812  50.868  0.00  0.00     0.010 A 
ATOM     15  C10  11 d           6.463  43.251  50.032  0.00  0.00     0.037 A 
ATOM     16  C11  11 d           7.656  43.942  49.782  0.00  0.00     0.065 A 
ATOM     17  C12  11 d           7.851  45.217  50.332  0.00  0.00     0.037 A 
ATOM     18  C13  11 d           6.881  45.777  51.179  0.00  0.00     0.010 A 
BRANCH  16  19
ATOM     19  O4   11 d           8.602  43.413  48.877  0.00  0.00    -0.361 OA
ATOM     20  H17  11 d           8.957  44.231  48.352  0.00  0.00     0.217 HD
ENDBRANCH  16  19
ENDBRANCH  12  13
ENDBRANCH   1  12
TORSDOF 7
ENDMDL
MODEL 8
REMARK VINA RESULT:      -6.2      2.167      3.972
REMARK  7 active torsions:
REMARK  status: ('A' for Active; 'I' for Inactive)
REMARK    1  A    between atoms: C1_1  and  O2_3 
REMARK    2  A    between atoms: C1_1  and  C4_6 
REMARK    3  A    between atoms: O2_3  and  C2_4 
REMARK    4  A    between atoms: C4_6  and  N1_7 
REMARK    5  A    between atoms: C4_6  and  C7_11 
REMARK       I    between atoms: N1_7  and  C5_8 
REMARK    6  A    between atoms: C7_11  and  C8_12 
REMARK    7  A    between atoms: C11_15  and  O4_18 
ROOT
ATOM      1  C4   11 d           5.140  45.460  51.785  0.00  0.00     0.188 C 
ENDROOT
BRANCH   1   2
ATOM      2  C1   11 d           4.164  46.378  52.511  0.00  0.00     0.282 C 
ATOM      3  O1   11 d           3.109  46.753  51.937  0.00  0.00    -0.263 OA
BRANCH   2   4
ATOM      4  O2   11 d           4.521  47.001  53.736  0.00  0.00    -0.320 OA
BRANCH   4   5
ATOM      5  C2   11 d           3.897  46.289  54.833  0.00  0.00     0.174 C 
ATOM      6  C3   11 d           4.905  45.331  55.447  0.00  0.00     0.034 C 
ENDBRANCH   4   5
ENDBRANCH   2   4
ENDBRANCH   1   2
BRANCH   1   7
ATOM      7  N1   11 d           6.568  45.745  52.156  0.00  0.00    -0.347 N 
ATOM      8  C5   11 d           7.599  45.795  51.176  0.00  0.00     0.214 C 
ATOM      9  O3   11 d           7.324  45.603  49.940  0.00  0.00    -0.274 OA
ATOM     10  C6   11 d           9.019  46.062  51.568  0.00  0.00     0.117 C 
ATOM     11  H7   11 d           6.819  45.909  53.189  0.00  0.00     0.163 HD
ENDBRANCH   1   7
BRANCH   1  12
ATOM     12  C7   11 d           4.894  43.952  52.009  0.00  0.00     0.074 C 
BRANCH  12  13
ATOM     13  C8   11 d           4.869  43.103  50.757  0.00  0.00    -0.056 A 
ATOM     14  C9   11 d           6.017  42.385  50.362  0.00  0.00     0.010 A 
ATOM     15  C10  11 d           6.005  41.615  49.189  0.00  0.00     0.037 A 
ATOM     16  C11  11 d           4.854  41.566  48.390  0.00  0.00     0.065 A 
ATOM     17  C12  11 d           3.699  42.254  48.790  0.00  0.00     0.037 A 
ATOM     18  C13  11 d           3.711  43.035  49.956  0.00  0.00     0.010 A 
BRANCH  16  19
ATOM     19  O4   11 d           4.817  40.728  47.254  0.00  0.00    -0.361 OA
ATOM     20  H17  11 d           3.976  40.139  47.385  0.00  0.00     0.217 HD
ENDBRANCH  16  19
ENDBRANCH  12  13
ENDBRANCH   1  12
TORSDOF 7
ENDMDL
MODEL 9
REMARK VINA RESULT:      -6.1      2.742      4.523
REMARK  7 active torsions:
REMARK  status: ('A' for Active; 'I' for Inactive)
REMARK    1  A    between atoms: C1_1  and  O2_3 
REMARK    2  A    between atoms: C1_1  and  C4_6 
REMARK    3  A    between atoms: O2_3  and  C2_4 
REMARK    4  A    between atoms: C4_6  and  N1_7 
REMARK    5  A    between atoms: C4_6  and  C7_11 
REMARK       I    between atoms: N1_7  and  C5_8 
REMARK    6  A    between atoms: C7_11  and  C8_12 
REMARK    7  A    between atoms: C11_15  and  O4_18 
ROOT
ATOM      1  C4   11 d           6.111  44.754  50.962  0.00  0.00     0.188 C 
ENDROOT
BRANCH   1   2
ATOM      2  C1   11 d           7.458  45.291  50.493  0.00  0.00     0.282 C 
ATOM      3  O1   11 d           8.160  44.616  49.697  0.00  0.00    -0.263 OA
BRANCH   2   4
ATOM      4  O2   11 d           8.043  46.430  51.106  0.00  0.00    -0.320 OA
BRANCH   4   5
ATOM      5  C2   11 d           9.332  46.064  51.659  0.00  0.00     0.174 C 
ATOM      6  C3   11 d           9.652  46.977  52.831  0.00  0.00     0.034 C 
ENDBRANCH   4   5
ENDBRANCH   2   4
ENDBRANCH   1   2
BRANCH   1   7
ATOM      7  N1   11 d           5.997  43.268  50.774  0.00  0.00    -0.347 N 
ATOM      8  C5   11 d           4.826  42.670  50.227  0.00  0.00     0.214 C 
ATOM      9  O3   11 d           3.836  43.401  49.873  0.00  0.00    -0.274 OA
ATOM     10  C6   11 d           4.725  41.186  50.065  0.00  0.00     0.117 C 
ATOM     11  H7   11 d           6.819  42.638  51.065  0.00  0.00     0.163 HD
ENDBRANCH   1   7
BRANCH   1  12
ATOM     12  C7   11 d           5.773  45.063  52.437  0.00  0.00     0.074 C 
BRANCH  12  13
ATOM     13  C8   11 d           4.323  45.388  52.719  0.00  0.00    -0.056 A 
ATOM     14  C9   11 d           3.464  44.405  53.253  0.00  0.00     0.010 A 
ATOM     15  C10  11 d           2.113  44.698  53.494  0.00  0.00     0.037 A 
ATOM     16  C11  11 d           1.601  45.966  53.190  0.00  0.00     0.065 A 
ATOM     17  C12  11 d           2.454  46.958  52.685  0.00  0.00     0.037 A 
ATOM     18  C13  11 d           3.804  46.667  52.431  0.00  0.00     0.010 A 
BRANCH  16  19
ATOM     19  O4   11 d           0.262  46.283  53.508  0.00  0.00    -0.361 OA
ATOM     20  H17  11 d          -0.288  45.465  53.194  0.00  0.00     0.217 HD
ENDBRANCH  16  19
ENDBRANCH  12  13
ENDBRANCH   1  12
TORSDOF 7
ENDMDL
MODEL 10
REMARK VINA RESULT:      -6.0      2.724      6.550
REMARK  7 active torsions:
REMARK  status: ('A' for Active; 'I' for Inactive)
REMARK    1  A    between atoms: C1_1  and  O2_3 
REMARK    2  A    between atoms: C1_1  and  C4_6 
REMARK    3  A    between atoms: O2_3  and  C2_4 
REMARK    4  A    between atoms: C4_6  and  N1_7 
REMARK    5  A    between atoms: C4_6  and  C7_11 
REMARK       I    between atoms: N1_7  and  C5_8 
REMARK    6  A    between atoms: C7_11  and  C8_12 
REMARK    7  A    between atoms: C11_15  and  O4_18 
ROOT
ATOM      1  C4   11 d           3.241  42.782  50.473  0.00  0.00     0.188 C 
ENDROOT
BRANCH   1   2
ATOM      2  C1   11 d           2.783  41.968  49.269  0.00  0.00     0.282 C 
ATOM      3  O1   11 d           2.169  40.884  49.442  0.00  0.00    -0.263 OA
BRANCH   2   4
ATOM      4  O2   11 d           3.227  42.288  47.959  0.00  0.00    -0.320 OA
BRANCH   4   5
ATOM      5  C2   11 d           3.947  41.156  47.410  0.00  0.00     0.174 C 
ATOM      6  C3   11 d           5.438  41.448  47.437  0.00  0.00     0.034 C 
ENDBRANCH   4   5
ENDBRANCH   2   4
ENDBRANCH   1   2
BRANCH   1   7
ATOM      7  N1   11 d           2.418  42.496  51.697  0.00  0.00    -0.347 N 
ATOM      8  C5   11 d           1.589  43.490  52.291  0.00  0.00     0.214 C 
ATOM      9  O3   11 d           1.524  44.663  51.780  0.00  0.00    -0.274 OA
ATOM     10  C6   11 d           0.791  43.190  53.521  0.00  0.00     0.117 C 
ATOM     11  H7   11 d           2.460  41.517  52.140  0.00  0.00     0.163 HD
ENDBRANCH   1   7
BRANCH   1  12
ATOM     12  C7   11 d           4.725  42.587  50.855  0.00  0.00     0.074 C 
BRANCH  12  13
ATOM     13  C8   11 d           5.480  43.850  51.203  0.00  0.00    -0.056 A 
ATOM     14  C9   11 d           5.170  44.563  52.379  0.00  0.00     0.010 A 
ATOM     15  C10  11 d           5.854  45.749  52.693  0.00  0.00     0.037 A 
ATOM     16  C11  11 d           6.840  46.243  51.828  0.00  0.00     0.065 A 
ATOM     17  C12  11 d           7.174  45.525  50.671  0.00  0.00     0.037 A 
ATOM     18  C13  11 d           6.485  44.346  50.347  0.00  0.00     0.010 A 
BRANCH  16  19
ATOM     19  O4   11 d           7.582  47.390  52.185  0.00  0.00    -0.361 OA
ATOM     20  H17  11 d           8.040  47.695  51.308  0.00  0.00     0.217 HD
ENDBRANCH  16  19
ENDBRANCH  12  13
ENDBRANCH   1  12
TORSDOF 7
ENDMDL
