MODEL 1
REMARK VINA RESULT:      -8.9      0.000      0.000
REMARK  5 active torsions:
REMARK  status: ('A' for Active; 'I' for Inactive)
REMARK    1  A    between atoms: C1_1  and  C2_2 
REMARK    2  A    between atoms: C4_4  and  O2_10 
REMARK    3  A    between atoms: C5_5  and  O1_6 
REMARK    4  A    between atoms: N1_12  and  N2_13 
REMARK       I    between atoms: N2_13  and  C10_14 
REMARK    5  A    between atoms: C10_14  and  C11_16 
ROOT
ATOM      1  C1   11 d          -9.421 208.583 112.907  0.00  0.00     0.061 C 
ATOM      2  N1   11 d         -10.102 208.430 114.022  0.00  0.00    -0.176 NA
ATOM      3  C20  11 d         -10.014 208.377 111.535  0.00  0.00     0.073 C 
ENDROOT
BRANCH   2   4
ATOM      4  N2   11 d         -11.392 207.910 114.181  0.00  0.00    -0.246 N 
ATOM      5  C10  11 d         -12.045 207.920 115.457  0.00  0.00     0.242 C 
ATOM      6  O3   11 d         -11.403 208.311 116.496  0.00  0.00    -0.271 OA
ATOM      7  H10  11 d         -11.867 207.568 113.286  0.00  0.00     0.192 HD
BRANCH   5   8
ATOM      8  C11  11 d         -13.501 207.517 115.659  0.00  0.00     0.089 A 
ATOM      9  C12  11 d         -14.687 207.243 114.732  0.00  0.00     0.032 A 
ATOM     10  C13  11 d         -14.384 206.695 113.353  0.00  0.00    -0.053 A 
ATOM     11  C19  11 d         -14.423 208.658 115.193  0.00  0.00     0.025 A 
ATOM     12  C14  11 d         -15.010 205.476 113.012  0.00  0.00     0.007 A 
ATOM     13  C18  11 d         -13.662 207.386 112.356  0.00  0.00     0.007 A 
ATOM     14  C15  11 d         -14.916 204.955 111.713  0.00  0.00     0.001 A 
ATOM     15  C16  11 d         -14.195 205.648 110.735  0.00  0.00     0.000 A 
ATOM     16  C17  11 d         -13.564 206.860 111.057  0.00  0.00     0.001 A 
ENDBRANCH   5   8
ENDBRANCH   2   4
BRANCH   1  17
ATOM     17  C2   11 d          -7.970 208.958 113.101  0.00  0.00    -0.007 A 
ATOM     18  C3   11 d          -7.600 209.798 114.181  0.00  0.00     0.053 A 
ATOM     19  C4   11 d          -6.248 210.036 114.527  0.00  0.00     0.102 A 
ATOM     20  C5   11 d          -5.241 209.414 113.748  0.00  0.00     0.101 A 
ATOM     21  C7   11 d          -5.595 208.633 112.635  0.00  0.00     0.040 A 
ATOM     22  C8   11 d          -6.941 208.425 112.298  0.00  0.00     0.016 A 
BRANCH  19  23
ATOM     23  O2   11 d          -5.849 210.849 115.649  0.00  0.00    -0.353 OA
ATOM     24  C9   11 d          -5.683 210.165 116.923  0.00  0.00     0.210 C 
ENDBRANCH  19  23
BRANCH  20  25
ATOM     25  O1   11 d          -3.870 209.443 114.144  0.00  0.00    -0.353 OA
ATOM     26  C6   11 d          -3.443 208.159 114.673  0.00  0.00     0.210 C 
ENDBRANCH  20  25
ENDBRANCH   1  17
TORSDOF 5
ENDMDL
MODEL 2
REMARK VINA RESULT:      -8.4      1.489      2.042
REMARK  5 active torsions:
REMARK  status: ('A' for Active; 'I' for Inactive)
REMARK    1  A    between atoms: C1_1  and  C2_2 
REMARK    2  A    between atoms: C4_4  and  O2_10 
REMARK    3  A    between atoms: C5_5  and  O1_6 
REMARK    4  A    between atoms: N1_12  and  N2_13 
REMARK       I    between atoms: N2_13  and  C10_14 
REMARK    5  A    between atoms: C10_14  and  C11_16 
ROOT
ATOM      1  C1   11 d          -8.780 208.664 115.131  0.00  0.00     0.061 C 
ATOM      2  N1   11 d          -9.884 208.619 114.418  0.00  0.00    -0.176 NA
ATOM      3  C20  11 d          -8.763 208.634 116.640  0.00  0.00     0.073 C 
ENDROOT
BRANCH   2   4
ATOM      4  N2   11 d         -11.207 208.701 114.868  0.00  0.00    -0.246 N 
ATOM      5  C10  11 d         -12.125 207.616 114.680  0.00  0.00     0.242 C 
ATOM      6  O3   11 d         -11.767 206.593 113.996  0.00  0.00    -0.271 OA
ATOM      7  H10  11 d         -11.460 209.591 115.404  0.00  0.00     0.192 HD
BRANCH   5   8
ATOM      8  C11  11 d         -13.523 207.584 115.286  0.00  0.00     0.089 A 
ATOM      9  C12  11 d         -14.946 207.670 114.730  0.00  0.00     0.032 A 
ATOM     10  C13  11 d         -15.183 207.142 113.331  0.00  0.00    -0.053 A 
ATOM     11  C19  11 d         -14.210 208.945 115.075  0.00  0.00     0.025 A 
ATOM     12  C14  11 d         -16.172 206.141 113.198  0.00  0.00     0.007 A 
ATOM     13  C18  11 d         -14.608 207.683 112.161  0.00  0.00     0.007 A 
ATOM     14  C15  11 d         -16.573 205.687 111.934  0.00  0.00     0.001 A 
ATOM     15  C16  11 d         -15.993 206.229 110.782  0.00  0.00     0.000 A 
ATOM     16  C17  11 d         -15.008 207.222 110.895  0.00  0.00     0.001 A 
ENDBRANCH   5   8
ENDBRANCH   2   4
BRANCH   1  17
ATOM     17  C2   11 d          -7.510 208.779 114.322  0.00  0.00    -0.007 A 
ATOM     18  C3   11 d          -6.289 209.091 114.971  0.00  0.00     0.053 A 
ATOM     19  C4   11 d          -5.041 209.032 114.306  0.00  0.00     0.102 A 
ATOM     20  C5   11 d          -5.030 208.658 112.939  0.00  0.00     0.101 A 
ATOM     21  C7   11 d          -6.240 208.412 112.268  0.00  0.00     0.040 A 
ATOM     22  C8   11 d          -7.468 208.494 112.942  0.00  0.00     0.016 A 
BRANCH  19  23
ATOM     23  O2   11 d          -3.783 209.300 114.958  0.00  0.00    -0.353 OA
ATOM     24  C9   11 d          -3.308 208.292 115.894  0.00  0.00     0.210 C 
ENDBRANCH  19  23
BRANCH  20  25
ATOM     25  O1   11 d          -3.810 208.386 112.251  0.00  0.00    -0.353 OA
ATOM     26  C6   11 d          -4.056 207.931 110.894  0.00  0.00     0.210 C 
ENDBRANCH  20  25
ENDBRANCH   1  17
TORSDOF 5
ENDMDL
MODEL 3
REMARK VINA RESULT:      -8.3      1.221      2.007
REMARK  5 active torsions:
REMARK  status: ('A' for Active; 'I' for Inactive)
REMARK    1  A    between atoms: C1_1  and  C2_2 
REMARK    2  A    between atoms: C4_4  and  O2_10 
REMARK    3  A    between atoms: C5_5  and  O1_6 
REMARK    4  A    between atoms: N1_12  and  N2_13 
REMARK       I    between atoms: N2_13  and  C10_14 
REMARK    5  A    between atoms: C10_14  and  C11_16 
ROOT
ATOM      1  C1   11 d          -9.077 208.954 114.309  0.00  0.00     0.061 C 
ATOM      2  N1   11 d          -9.884 209.143 115.330  0.00  0.00    -0.176 NA
ATOM      3  C20  11 d          -9.553 208.844 112.881  0.00  0.00     0.073 C 
ENDROOT
BRANCH   2   4
ATOM      4  N2   11 d         -11.284 209.115 115.341  0.00  0.00    -0.246 N 
ATOM      5  C10  11 d         -12.002 207.874 115.344  0.00  0.00     0.242 C 
ATOM      6  O3   11 d         -11.362 206.770 115.226  0.00  0.00    -0.271 OA
ATOM      7  H10  11 d         -11.766 210.067 115.407  0.00  0.00     0.192 HD
BRANCH   5   8
ATOM      8  C11  11 d         -13.513 207.779 115.515  0.00  0.00     0.089 A 
ATOM      9  C12  11 d         -14.704 207.626 114.566  0.00  0.00     0.032 A 
ATOM     10  C13  11 d         -14.474 206.874 113.272  0.00  0.00    -0.053 A 
ATOM     11  C19  11 d         -14.186 209.011 114.882  0.00  0.00     0.025 A 
ATOM     12  C14  11 d         -15.313 205.763 113.035  0.00  0.00     0.007 A 
ATOM     13  C18  11 d         -13.604 207.296 112.242  0.00  0.00     0.007 A 
ATOM     14  C15  11 d         -15.284 205.086 111.807  0.00  0.00     0.001 A 
ATOM     15  C16  11 d         -14.416 205.513 110.796  0.00  0.00     0.000 A 
ATOM     16  C17  11 d         -13.573 206.613 111.015  0.00  0.00     0.001 A 
ENDBRANCH   5   8
ENDBRANCH   2   4
BRANCH   1  17
ATOM     17  C2   11 d          -7.617 208.822 114.676  0.00  0.00    -0.007 A 
ATOM     18  C3   11 d          -6.631 208.856 113.657  0.00  0.00     0.053 A 
ATOM     19  C4   11 d          -5.247 208.924 113.945  0.00  0.00     0.102 A 
ATOM     20  C5   11 d          -4.849 208.947 115.304  0.00  0.00     0.101 A 
ATOM     21  C7   11 d          -5.812 208.847 116.321  0.00  0.00     0.040 A 
ATOM     22  C8   11 d          -7.179 208.761 116.014  0.00  0.00     0.016 A 
BRANCH  19  23
ATOM     23  O2   11 d          -4.230 209.006 112.926  0.00  0.00    -0.353 OA
ATOM     24  C9   11 d          -3.636 207.748 112.497  0.00  0.00     0.210 C 
ENDBRANCH  19  23
BRANCH  20  25
ATOM     25  O1   11 d          -3.497 209.209 115.680  0.00  0.00    -0.353 OA
ATOM     26  C6   11 d          -2.848 208.017 116.195  0.00  0.00     0.210 C 
ENDBRANCH  20  25
ENDBRANCH   1  17
TORSDOF 5
ENDMDL
MODEL 4
REMARK VINA RESULT:      -8.1      2.416      8.784
REMARK  5 active torsions:
REMARK  status: ('A' for Active; 'I' for Inactive)
REMARK    1  A    between atoms: C1_1  and  C2_2 
REMARK    2  A    between atoms: C4_4  and  O2_10 
REMARK    3  A    between atoms: C5_5  and  O1_6 
REMARK    4  A    between atoms: N1_12  and  N2_13 
REMARK       I    between atoms: N2_13  and  C10_14 
REMARK    5  A    between atoms: C10_14  and  C11_16 
ROOT
ATOM      1  C1   11 d         -10.385 208.314 114.153  0.00  0.00     0.061 C 
ATOM      2  N1   11 d          -9.409 208.961 113.553  0.00  0.00    -0.176 NA
ATOM      3  C20  11 d         -10.605 208.341 115.646  0.00  0.00     0.073 C 
ENDROOT
BRANCH   2   4
ATOM      4  N2   11 d          -8.329 209.632 114.138  0.00  0.00    -0.246 N 
ATOM      5  C10  11 d          -6.977 209.305 113.794  0.00  0.00     0.242 C 
ATOM      6  O3   11 d          -6.741 208.312 113.019  0.00  0.00    -0.271 OA
ATOM      7  H10  11 d          -8.585 210.430 114.803  0.00  0.00     0.192 HD
BRANCH   5   8
ATOM      8  C11  11 d          -5.771 210.104 114.275  0.00  0.00     0.089 A 
ATOM      9  C12  11 d          -4.625 209.849 115.258  0.00  0.00     0.032 A 
ATOM     10  C13  11 d          -4.162 208.418 115.435  0.00  0.00    -0.053 A 
ATOM     11  C19  11 d          -5.925 210.422 115.774  0.00  0.00     0.025 A 
ATOM     12  C14  11 d          -2.793 208.168 115.192  0.00  0.00     0.007 A 
ATOM     13  C18  11 d          -4.955 207.378 115.967  0.00  0.00     0.007 A 
ATOM     14  C15  11 d          -2.230 206.914 115.467  0.00  0.00     0.001 A 
ATOM     15  C16  11 d          -3.027 205.891 115.990  0.00  0.00     0.000 A 
ATOM     16  C17  11 d          -4.390 206.121 116.235  0.00  0.00     0.001 A 
ENDBRANCH   5   8
ENDBRANCH   2   4
BRANCH   1  17
ATOM     17  C2   11 d         -11.267 207.506 113.231  0.00  0.00    -0.007 A 
ATOM     18  C3   11 d         -12.355 206.770 113.765  0.00  0.00     0.053 A 
ATOM     19  C4   11 d         -13.324 206.147 112.944  0.00  0.00     0.102 A 
ATOM     20  C5   11 d         -13.181 206.262 111.539  0.00  0.00     0.101 A 
ATOM     21  C7   11 d         -12.072 206.932 110.997  0.00  0.00     0.040 A 
ATOM     22  C8   11 d         -11.111 207.527 111.830  0.00  0.00     0.016 A 
BRANCH  19  23
ATOM     23  O2   11 d         -14.463 205.433 113.465  0.00  0.00    -0.353 OA
ATOM     24  C9   11 d         -15.586 206.240 113.918  0.00  0.00     0.210 C 
ENDBRANCH  19  23
BRANCH  20  25
ATOM     25  O1   11 d         -14.211 205.834 110.648  0.00  0.00    -0.353 OA
ATOM     26  C6   11 d         -14.991 206.957 110.160  0.00  0.00     0.210 C 
ENDBRANCH  20  25
ENDBRANCH   1  17
TORSDOF 5
ENDMDL
MODEL 5
REMARK VINA RESULT:      -8.1      2.474      8.614
REMARK  5 active torsions:
REMARK  status: ('A' for Active; 'I' for Inactive)
REMARK    1  A    between atoms: C1_1  and  C2_2 
REMARK    2  A    between atoms: C4_4  and  O2_10 
REMARK    3  A    between atoms: C5_5  and  O1_6 
REMARK    4  A    between atoms: N1_12  and  N2_13 
REMARK       I    between atoms: N2_13  and  C10_14 
REMARK    5  A    between atoms: C10_14  and  C11_16 
ROOT
ATOM      1  C1   11 d         -10.841 208.126 115.186  0.00  0.00     0.061 C 
ATOM      2  N1   11 d          -9.855 208.768 114.598  0.00  0.00    -0.176 NA
ATOM      3  C20  11 d         -10.967 207.987 116.684  0.00  0.00     0.073 C 
ENDROOT
BRANCH   2   4
ATOM      4  N2   11 d          -8.691 209.283 115.181  0.00  0.00    -0.246 N 
ATOM      5  C10  11 d          -7.578 209.697 114.377  0.00  0.00     0.242 C 
ATOM      6  O3   11 d          -7.600 209.496 113.112  0.00  0.00    -0.271 OA
ATOM      7  H10  11 d          -8.717 209.399 116.244  0.00  0.00     0.192 HD
BRANCH   5   8
ATOM      8  C11  11 d          -6.354 210.409 114.940  0.00  0.00     0.089 A 
ATOM      9  C12  11 d          -4.841 210.190 114.861  0.00  0.00     0.032 A 
ATOM     10  C13  11 d          -4.294 209.540 113.607  0.00  0.00    -0.053 A 
ATOM     11  C19  11 d          -5.633 209.488 115.941  0.00  0.00     0.025 A 
ATOM     12  C14  11 d          -3.304 210.264 112.907  0.00  0.00     0.007 A 
ATOM     13  C18  11 d          -4.588 208.222 113.193  0.00  0.00     0.007 A 
ATOM     14  C15  11 d          -2.628 209.694 111.819  0.00  0.00     0.001 A 
ATOM     15  C16  11 d          -2.930 208.389 111.417  0.00  0.00     0.000 A 
ATOM     16  C17  11 d          -3.913 207.656 112.099  0.00  0.00     0.001 A 
ENDBRANCH   5   8
ENDBRANCH   2   4
BRANCH   1  17
ATOM     17  C2   11 d         -11.840 207.502 114.241  0.00  0.00    -0.007 A 
ATOM     18  C3   11 d         -11.628 207.583 112.841  0.00  0.00     0.053 A 
ATOM     19  C4   11 d         -12.420 206.866 111.912  0.00  0.00     0.102 A 
ATOM     20  C5   11 d         -13.466 206.053 112.415  0.00  0.00     0.101 A 
ATOM     21  C7   11 d         -13.728 206.018 113.795  0.00  0.00     0.040 A 
ATOM     22  C8   11 d         -12.942 206.751 114.698  0.00  0.00     0.016 A 
BRANCH  19  23
ATOM     23  O2   11 d         -12.193 206.897 110.489  0.00  0.00    -0.353 OA
ATOM     24  C9   11 d         -11.051 207.672 110.029  0.00  0.00     0.210 C 
ENDBRANCH  19  23
BRANCH  20  25
ATOM     25  O1   11 d         -14.181 205.153 111.570  0.00  0.00    -0.353 OA
ATOM     26  C6   11 d         -15.571 205.550 111.426  0.00  0.00     0.210 C 
ENDBRANCH  20  25
ENDBRANCH   1  17
TORSDOF 5
ENDMDL
MODEL 6
REMARK VINA RESULT:      -8.1      5.058      8.929
REMARK  5 active torsions:
REMARK  status: ('A' for Active; 'I' for Inactive)
REMARK    1  A    between atoms: C1_1  and  C2_2 
REMARK    2  A    between atoms: C4_4  and  O2_10 
REMARK    3  A    between atoms: C5_5  and  O1_6 
REMARK    4  A    between atoms: N1_12  and  N2_13 
REMARK       I    between atoms: N2_13  and  C10_14 
REMARK    5  A    between atoms: C10_14  and  C11_16 
ROOT
ATOM      1  C1   11 d         -14.152 204.712 118.215  0.00  0.00     0.061 C 
ATOM      2  N1   11 d         -13.228 205.615 117.972  0.00  0.00    -0.176 NA
ATOM      3  C20  11 d         -14.591 203.679 117.206  0.00  0.00     0.073 C 
ENDROOT
BRANCH   2   4
ATOM      4  N2   11 d         -12.610 205.912 116.752  0.00  0.00    -0.246 N 
ATOM      5  C10  11 d         -13.152 206.898 115.864  0.00  0.00     0.242 C 
ATOM      6  O3   11 d         -14.280 207.444 116.135  0.00  0.00    -0.271 OA
ATOM      7  H10  11 d         -11.688 205.402 116.563  0.00  0.00     0.192 HD
BRANCH   5   8
ATOM      8  C11  11 d         -12.442 207.375 114.603  0.00  0.00     0.089 A 
ATOM      9  C12  11 d         -12.592 207.100 113.105  0.00  0.00     0.032 A 
ATOM     10  C13  11 d         -13.976 206.761 112.592  0.00  0.00    -0.053 A 
ATOM     11  C19  11 d         -11.717 206.191 113.937  0.00  0.00     0.025 A 
ATOM     12  C14  11 d         -14.481 207.585 111.561  0.00  0.00     0.007 A 
ATOM     13  C18  11 d         -14.708 205.611 112.958  0.00  0.00     0.007 A 
ATOM     14  C15  11 d         -15.686 207.274 110.916  0.00  0.00     0.001 A 
ATOM     15  C16  11 d         -16.404 206.132 111.290  0.00  0.00     0.000 A 
ATOM     16  C17  11 d         -15.918 205.305 112.313  0.00  0.00     0.001 A 
ENDBRANCH   5   8
ENDBRANCH   2   4
BRANCH   1  17
ATOM     17  C2   11 d         -14.774 204.800 119.589  0.00  0.00    -0.007 A 
ATOM     18  C3   11 d         -14.276 205.739 120.527  0.00  0.00     0.053 A 
ATOM     19  C4   11 d         -14.927 206.000 121.757  0.00  0.00     0.102 A 
ATOM     20  C5   11 d         -16.112 205.280 122.050  0.00  0.00     0.101 A 
ATOM     21  C7   11 d         -16.578 204.300 121.158  0.00  0.00     0.040 A 
ATOM     22  C8   11 d         -15.907 204.043 119.953  0.00  0.00     0.016 A 
BRANCH  19  23
ATOM     23  O2   11 d         -14.464 206.983 122.704  0.00  0.00    -0.353 OA
ATOM     24  C9   11 d         -13.606 206.500 123.776  0.00  0.00     0.210 C 
ENDBRANCH  19  23
BRANCH  20  25
ATOM     25  O1   11 d         -16.931 205.619 123.168  0.00  0.00    -0.353 OA
ATOM     26  C6   11 d         -16.860 204.604 124.205  0.00  0.00     0.210 C 
ENDBRANCH  20  25
ENDBRANCH   1  17
TORSDOF 5
ENDMDL
MODEL 7
REMARK VINA RESULT:      -8.1      1.836      2.016
REMARK  5 active torsions:
REMARK  status: ('A' for Active; 'I' for Inactive)
REMARK    1  A    between atoms: C1_1  and  C2_2 
REMARK    2  A    between atoms: C4_4  and  O2_10 
REMARK    3  A    between atoms: C5_5  and  O1_6 
REMARK    4  A    between atoms: N1_12  and  N2_13 
REMARK       I    between atoms: N2_13  and  C10_14 
REMARK    5  A    between atoms: C10_14  and  C11_16 
ROOT
ATOM      1  C1   11 d          -8.965 209.131 114.698  0.00  0.00     0.061 C 
ATOM      2  N1   11 d          -9.821 208.957 115.682  0.00  0.00    -0.176 NA
ATOM      3  C20  11 d          -9.358 209.654 113.337  0.00  0.00     0.073 C 
ENDROOT
BRANCH   2   4
ATOM      4  N2   11 d         -11.217 209.047 115.639  0.00  0.00    -0.246 N 
ATOM      5  C10  11 d         -12.029 207.892 115.390  0.00  0.00     0.242 C 
ATOM      6  O3   11 d         -11.472 206.776 115.095  0.00  0.00    -0.271 OA
ATOM      7  H10  11 d         -11.626 210.010 115.861  0.00  0.00     0.192 HD
BRANCH   5   8
ATOM      8  C11  11 d         -13.549 207.897 115.489  0.00  0.00     0.089 A 
ATOM      9  C12  11 d         -14.701 207.766 114.489  0.00  0.00     0.032 A 
ATOM     10  C13  11 d         -14.456 206.933 113.247  0.00  0.00    -0.053 A 
ATOM     11  C19  11 d         -14.112 209.131 114.761  0.00  0.00     0.025 A 
ATOM     12  C14  11 d         -15.351 205.863 113.024  0.00  0.00     0.007 A 
ATOM     13  C18  11 d         -13.514 207.247 112.244  0.00  0.00     0.007 A 
ATOM     14  C15  11 d         -15.306 205.122 111.836  0.00  0.00     0.001 A 
ATOM     15  C16  11 d         -14.365 205.440 110.850  0.00  0.00     0.000 A 
ATOM     16  C17  11 d         -13.467 206.498 111.056  0.00  0.00     0.001 A 
ENDBRANCH   5   8
ENDBRANCH   2   4
BRANCH   1  17
ATOM     17  C2   11 d          -7.543 208.737 115.021  0.00  0.00    -0.007 A 
ATOM     18  C3   11 d          -7.183 208.442 116.360  0.00  0.00     0.053 A 
ATOM     19  C4   11 d          -5.925 207.891 116.702  0.00  0.00     0.102 A 
ATOM     20  C5   11 d          -4.999 207.645 115.658  0.00  0.00     0.101 A 
ATOM     21  C7   11 d          -5.319 207.995 114.336  0.00  0.00     0.040 A 
ATOM     22  C8   11 d          -6.566 208.557 114.021  0.00  0.00     0.016 A 
BRANCH  19  23
ATOM     23  O2   11 d          -5.555 207.540 118.050  0.00  0.00    -0.353 OA
ATOM     24  C9   11 d          -6.100 206.296 118.572  0.00  0.00     0.210 C 
ENDBRANCH  19  23
BRANCH  20  25
ATOM     25  O1   11 d          -3.793 206.917 115.889  0.00  0.00    -0.353 OA
ATOM     26  C6   11 d          -2.638 207.797 115.913  0.00  0.00     0.210 C 
ENDBRANCH  20  25
ENDBRANCH   1  17
TORSDOF 5
ENDMDL
MODEL 8
REMARK VINA RESULT:      -8.0      2.925      8.871
REMARK  5 active torsions:
REMARK  status: ('A' for Active; 'I' for Inactive)
REMARK    1  A    between atoms: C1_1  and  C2_2 
REMARK    2  A    between atoms: C4_4  and  O2_10 
REMARK    3  A    between atoms: C5_5  and  O1_6 
REMARK    4  A    between atoms: N1_12  and  N2_13 
REMARK       I    between atoms: N2_13  and  C10_14 
REMARK    5  A    between atoms: C10_14  and  C11_16 
ROOT
ATOM      1  C1   11 d          -8.772 208.819 112.627  0.00  0.00     0.061 C 
ATOM      2  N1   11 d          -7.639 208.546 112.016  0.00  0.00    -0.176 NA
ATOM      3  C20  11 d          -8.900 209.855 113.717  0.00  0.00     0.073 C 
ENDROOT
BRANCH   2   4
ATOM      4  N2   11 d          -6.354 209.001 112.335  0.00  0.00    -0.246 N 
ATOM      5  C10  11 d          -5.660 208.514 113.490  0.00  0.00     0.242 C 
ATOM      6  O3   11 d          -6.260 207.732 114.309  0.00  0.00    -0.271 OA
ATOM      7  H10  11 d          -5.915 209.678 111.633  0.00  0.00     0.192 HD
BRANCH   5   8
ATOM      8  C11  11 d          -4.206 208.850 113.800  0.00  0.00     0.089 A 
ATOM      9  C12  11 d          -2.877 208.701 113.053  0.00  0.00     0.032 A 
ATOM     10  C13  11 d          -2.914 208.768 111.541  0.00  0.00    -0.053 A 
ATOM     11  C19  11 d          -3.383 207.551 113.895  0.00  0.00     0.025 A 
ATOM     12  C14  11 d          -2.095 209.747 110.937  0.00  0.00     0.007 A 
ATOM     13  C18  11 d          -3.576 207.835 110.712  0.00  0.00     0.007 A 
ATOM     14  C15  11 d          -1.942 209.800 109.544  0.00  0.00     0.001 A 
ATOM     15  C16  11 d          -2.605 208.872 108.734  0.00  0.00     0.000 A 
ATOM     16  C17  11 d          -3.426 207.894 109.317  0.00  0.00     0.001 A 
ENDBRANCH   5   8
ENDBRANCH   2   4
BRANCH   1  17
ATOM     17  C2   11 d          -9.949 207.988 112.174  0.00  0.00    -0.007 A 
ATOM     18  C3   11 d         -10.719 207.279 113.132  0.00  0.00     0.053 A 
ATOM     19  C4   11 d         -11.936 206.637 112.800  0.00  0.00     0.102 A 
ATOM     20  C5   11 d         -12.380 206.703 111.456  0.00  0.00     0.101 A 
ATOM     21  C7   11 d         -11.592 207.344 110.486  0.00  0.00     0.040 A 
ATOM     22  C8   11 d         -10.379 207.960 110.832  0.00  0.00     0.016 A 
BRANCH  19  23
ATOM     23  O2   11 d         -12.757 205.951 113.766  0.00  0.00    -0.353 OA
ATOM     24  C9   11 d         -13.414 206.779 114.767  0.00  0.00     0.210 C 
ENDBRANCH  19  23
BRANCH  20  25
ATOM     25  O1   11 d         -13.681 206.253 111.080  0.00  0.00    -0.353 OA
ATOM     26  C6   11 d         -14.167 206.959 109.906  0.00  0.00     0.210 C 
ENDBRANCH  20  25
ENDBRANCH   1  17
TORSDOF 5
ENDMDL
MODEL 9
REMARK VINA RESULT:      -7.9      2.403      8.619
REMARK  5 active torsions:
REMARK  status: ('A' for Active; 'I' for Inactive)
REMARK    1  A    between atoms: C1_1  and  C2_2 
REMARK    2  A    between atoms: C4_4  and  O2_10 
REMARK    3  A    between atoms: C5_5  and  O1_6 
REMARK    4  A    between atoms: N1_12  and  N2_13 
REMARK       I    between atoms: N2_13  and  C10_14 
REMARK    5  A    between atoms: C10_14  and  C11_16 
ROOT
ATOM      1  C1   11 d         -10.374 207.883 112.406  0.00  0.00     0.061 C 
ATOM      2  N1   11 d          -9.416 207.779 113.302  0.00  0.00    -0.176 NA
ATOM      3  C20  11 d         -10.139 208.334 110.985  0.00  0.00     0.073 C 
ENDROOT
BRANCH   2   4
ATOM      4  N2   11 d          -8.085 208.199 113.195  0.00  0.00    -0.246 N 
ATOM      5  C10  11 d          -7.633 209.406 113.821  0.00  0.00     0.242 C 
ATOM      6  O3   11 d          -8.479 210.176 114.400  0.00  0.00    -0.271 OA
ATOM      7  H10  11 d          -7.430 207.533 112.673  0.00  0.00     0.192 HD
BRANCH   5   8
ATOM      8  C11  11 d          -6.170 209.829 113.874  0.00  0.00     0.089 A 
ATOM      9  C12  11 d          -4.995 209.549 114.813  0.00  0.00     0.032 A 
ATOM     10  C13  11 d          -4.976 208.215 115.530  0.00  0.00    -0.053 A 
ATOM     11  C19  11 d          -5.927 210.699 115.121  0.00  0.00     0.025 A 
ATOM     12  C14  11 d          -3.827 207.416 115.338  0.00  0.00     0.007 A 
ATOM     13  C18  11 d          -5.937 207.800 116.478  0.00  0.00     0.007 A 
ATOM     14  C15  11 d          -3.641 206.233 116.067  0.00  0.00     0.001 A 
ATOM     15  C16  11 d          -4.602 205.831 117.001  0.00  0.00     0.000 A 
ATOM     16  C17  11 d          -5.751 206.611 117.203  0.00  0.00     0.001 A 
ENDBRANCH   5   8
ENDBRANCH   2   4
BRANCH   1  17
ATOM     17  C2   11 d         -11.754 207.542 112.917  0.00  0.00    -0.007 A 
ATOM     18  C3   11 d         -12.687 206.913 112.054  0.00  0.00     0.053 A 
ATOM     19  C4   11 d         -13.923 206.402 112.518  0.00  0.00     0.102 A 
ATOM     20  C5   11 d         -14.229 206.544 113.894  0.00  0.00     0.101 A 
ATOM     21  C7   11 d         -13.343 207.224 114.745  0.00  0.00     0.040 A 
ATOM     22  C8   11 d         -12.130 207.740 114.261  0.00  0.00     0.016 A 
BRANCH  19  23
ATOM     23  O2   11 d         -14.865 205.718 111.668  0.00  0.00    -0.353 OA
ATOM     24  C9   11 d         -15.464 206.501 110.597  0.00  0.00     0.210 C 
ENDBRANCH  19  23
BRANCH  20  25
ATOM     25  O1   11 d         -15.356 205.890 114.477  0.00  0.00    -0.353 OA
ATOM     26  C6   11 d         -14.983 205.155 115.673  0.00  0.00     0.210 C 
ENDBRANCH  20  25
ENDBRANCH   1  17
TORSDOF 5
ENDMDL
MODEL 10
REMARK VINA RESULT:      -7.9      4.567      8.595
REMARK  5 active torsions:
REMARK  status: ('A' for Active; 'I' for Inactive)
REMARK    1  A    between atoms: C1_1  and  C2_2 
REMARK    2  A    between atoms: C4_4  and  O2_10 
REMARK    3  A    between atoms: C5_5  and  O1_6 
REMARK    4  A    between atoms: N1_12  and  N2_13 
REMARK       I    between atoms: N2_13  and  C10_14 
REMARK    5  A    between atoms: C10_14  and  C11_16 
ROOT
ATOM      1  C1   11 d         -14.177 205.453 117.214  0.00  0.00     0.061 C 
ATOM      2  N1   11 d         -13.487 206.539 116.940  0.00  0.00    -0.176 NA
ATOM      3  C20  11 d         -14.788 204.567 116.156  0.00  0.00     0.073 C 
ENDROOT
BRANCH   2   4
ATOM      4  N2   11 d         -13.321 207.167 115.700  0.00  0.00    -0.246 N 
ATOM      5  C10  11 d         -12.027 207.291 115.097  0.00  0.00     0.242 C 
ATOM      6  O3   11 d         -10.986 206.919 115.746  0.00  0.00    -0.271 OA
ATOM      7  H10  11 d         -14.221 207.486 115.218  0.00  0.00     0.192 HD
BRANCH   5   8
ATOM      8  C11  11 d         -11.805 207.818 113.684  0.00  0.00     0.089 A 
ATOM      9  C12  11 d         -12.307 207.429 112.291  0.00  0.00     0.032 A 
ATOM     10  C13  11 d         -13.682 206.801 112.194  0.00  0.00    -0.053 A 
ATOM     11  C19  11 d         -11.071 206.757 112.844  0.00  0.00     0.025 A 
ATOM     12  C14  11 d         -14.608 207.449 111.346  0.00  0.00     0.007 A 
ATOM     13  C18  11 d         -14.037 205.556 112.758  0.00  0.00     0.007 A 
ATOM     14  C15  11 d         -15.856 206.875 111.071  0.00  0.00     0.001 A 
ATOM     15  C16  11 d         -16.198 205.642 111.638  0.00  0.00     0.000 A 
ATOM     16  C17  11 d         -15.291 204.986 112.484  0.00  0.00     0.001 A 
ENDBRANCH   5   8
ENDBRANCH   2   4
BRANCH   1  17
ATOM     17  C2   11 d         -14.344 205.167 118.688  0.00  0.00    -0.007 A 
ATOM     18  C3   11 d         -15.260 204.170 119.111  0.00  0.00     0.053 A 
ATOM     19  C4   11 d         -15.329 203.726 120.453  0.00  0.00     0.102 A 
ATOM     20  C5   11 d         -14.453 204.317 121.397  0.00  0.00     0.101 A 
ATOM     21  C7   11 d         -13.588 205.351 121.003  0.00  0.00     0.040 A 
ATOM     22  C8   11 d         -13.548 205.790 119.670  0.00  0.00     0.016 A 
BRANCH  19  23
ATOM     23  O2   11 d         -16.220 202.683 120.896  0.00  0.00    -0.353 OA
ATOM     24  C9   11 d         -17.642 202.995 120.890  0.00  0.00     0.210 C 
ENDBRANCH  19  23
BRANCH  20  25
ATOM     25  O1   11 d         -14.322 203.795 122.719  0.00  0.00    -0.353 OA
ATOM     26  C6   11 d         -15.132 204.541 123.667  0.00  0.00     0.210 C 
ENDBRANCH  20  25
ENDBRANCH   1  17
TORSDOF 5
ENDMDL
