MODEL 1
REMARK VINA RESULT:      -6.3      0.000      0.000
REMARK  6 active torsions:
REMARK  status: ('A' for Active; 'I' for Inactive)
REMARK    1  A    between atoms: C1_1  and  C2_2 
REMARK    2  A    between atoms: C1_1  and  O2_7 
REMARK    3  A    between atoms: O2_7  and  C5_8 
REMARK    4  A    between atoms: C5_8  and  C6_9 
REMARK    5  A    between atoms: C6_9  and  O3_10 
REMARK    6  A    between atoms: O3_10  and  C7_11 
ROOT
ATOM      1  C5   11 d         -14.547 206.739 115.339  0.00  0.00     0.205 C 
ENDROOT
BRANCH   1   2
ATOM      2  O2   11 d         -13.152 206.623 114.947  0.00  0.00    -0.316 OA
BRANCH   2   3
ATOM      3  C1   11 d         -12.847 207.616 113.977  0.00  0.00     0.289 C 
ATOM      4  O1   11 d         -13.695 208.520 113.768  0.00  0.00    -0.260 OA
BRANCH   3   5
ATOM      5  C2   11 d         -11.524 207.665 113.269  0.00  0.00     0.020 C 
ATOM      6  C3   11 d         -10.385 208.166 113.812  0.00  0.00     0.069 C 
ATOM      7 Br1   11 d         -10.143 208.890 115.591  0.00  0.00    -0.063 Br
ATOM      8  C4   11 d         -11.479 207.199 111.826  0.00  0.00     0.055 C 
ENDBRANCH   3   5
ENDBRANCH   2   3
ENDBRANCH   1   2
BRANCH   1   9
ATOM      9  C6   11 d         -15.292 205.480 114.922  0.00  0.00     0.202 C 
BRANCH   9  10
ATOM     10  O3   11 d         -16.356 205.841 114.000  0.00  0.00    -0.349 OA
BRANCH  10  11
ATOM     11  C7   11 d         -15.833 205.912 112.682  0.00  0.00     0.068 A 
ATOM     12  C8   11 d         -16.149 207.007 111.860  0.00  0.00     0.037 A 
ATOM     13  C9   11 d         -15.575 207.121 110.584  0.00  0.00     0.003 A 
ATOM     14  C10  11 d         -14.662 206.153 110.137  0.00  0.00     0.000 A 
ATOM     15  C11  11 d         -14.316 205.077 110.970  0.00  0.00     0.003 A 
ATOM     16  C12  11 d         -14.890 204.965 112.247  0.00  0.00     0.037 A 
ENDBRANCH  10  11
ENDBRANCH   9  10
ENDBRANCH   1   9
TORSDOF 6
ENDMDL
MODEL 2
REMARK VINA RESULT:      -6.2      2.265      3.537
REMARK  6 active torsions:
REMARK  status: ('A' for Active; 'I' for Inactive)
REMARK    1  A    between atoms: C1_1  and  C2_2 
REMARK    2  A    between atoms: C1_1  and  O2_7 
REMARK    3  A    between atoms: O2_7  and  C5_8 
REMARK    4  A    between atoms: C5_8  and  C6_9 
REMARK    5  A    between atoms: C6_9  and  O3_10 
REMARK    6  A    between atoms: O3_10  and  C7_11 
ROOT
ATOM      1  C5   11 d         -10.819 207.282 112.944  0.00  0.00     0.205 C 
ENDROOT
BRANCH   1   2
ATOM      2  O2   11 d         -11.421 206.327 113.859  0.00  0.00    -0.316 OA
BRANCH   2   3
ATOM      3  C1   11 d         -12.058 207.023 114.921  0.00  0.00     0.289 C 
ATOM      4  O1   11 d         -11.337 207.490 115.840  0.00  0.00    -0.260 OA
BRANCH   3   5
ATOM      5  C2   11 d         -13.536 207.289 114.933  0.00  0.00     0.020 C 
ATOM      6  C3   11 d         -14.444 206.532 115.598  0.00  0.00     0.069 C 
ATOM      7 Br1   11 d         -14.105 204.983 116.708  0.00  0.00    -0.063 Br
ATOM      8  C4   11 d         -14.051 208.432 114.078  0.00  0.00     0.055 C 
ENDBRANCH   3   5
ENDBRANCH   2   3
ENDBRANCH   1   2
BRANCH   1   9
ATOM      9  C6   11 d         -11.524 207.201 111.598  0.00  0.00     0.202 C 
BRANCH   9  10
ATOM     10  O3   11 d         -12.133 205.889 111.458  0.00  0.00    -0.349 OA
BRANCH  10  11
ATOM     11  C7   11 d         -13.530 206.039 111.250  0.00  0.00     0.068 A 
ATOM     12  C8   11 d         -14.437 205.286 112.013  0.00  0.00     0.037 A 
ATOM     13  C9   11 d         -15.820 205.485 111.864  0.00  0.00     0.003 A 
ATOM     14  C10  11 d         -16.296 206.457 110.971  0.00  0.00     0.000 A 
ATOM     15  C11  11 d         -15.391 207.237 110.234  0.00  0.00     0.003 A 
ATOM     16  C12  11 d         -14.009 207.037 110.384  0.00  0.00     0.037 A 
ENDBRANCH  10  11
ENDBRANCH   9  10
ENDBRANCH   1   9
TORSDOF 6
ENDMDL
MODEL 3
REMARK VINA RESULT:      -6.2      2.078      3.585
REMARK  6 active torsions:
REMARK  status: ('A' for Active; 'I' for Inactive)
REMARK    1  A    between atoms: C1_1  and  C2_2 
REMARK    2  A    between atoms: C1_1  and  O2_7 
REMARK    3  A    between atoms: O2_7  and  C5_8 
REMARK    4  A    between atoms: C5_8  and  C6_9 
REMARK    5  A    between atoms: C6_9  and  O3_10 
REMARK    6  A    between atoms: O3_10  and  C7_11 
ROOT
ATOM      1  C5   11 d         -11.082 206.964 113.627  0.00  0.00     0.205 C 
ENDROOT
BRANCH   1   2
ATOM      2  O2   11 d         -11.710 205.805 114.237  0.00  0.00    -0.316 OA
BRANCH   2   3
ATOM      3  C1   11 d         -12.184 206.147 115.533  0.00  0.00     0.289 C 
ATOM      4  O1   11 d         -11.355 206.586 116.369  0.00  0.00    -0.260 OA
BRANCH   3   5
ATOM      5  C2   11 d         -13.639 206.084 115.897  0.00  0.00     0.020 C 
ATOM      6  C3   11 d         -14.520 207.098 115.702  0.00  0.00     0.069 C 
ATOM      7 Br1   11 d         -14.176 208.824 114.895  0.00  0.00    -0.063 Br
ATOM      8  C4   11 d         -14.135 204.836 116.602  0.00  0.00     0.055 C 
ENDBRANCH   3   5
ENDBRANCH   2   3
ENDBRANCH   1   2
BRANCH   1   9
ATOM      9  C6   11 d         -11.831 207.331 112.355  0.00  0.00     0.202 C 
BRANCH   9  10
ATOM     10  O3   11 d         -12.250 206.113 111.681  0.00  0.00    -0.349 OA
BRANCH  10  11
ATOM     11  C7   11 d         -13.646 206.172 111.429  0.00  0.00     0.068 A 
ATOM     12  C8   11 d         -14.543 205.526 112.296  0.00  0.00     0.037 A 
ATOM     13  C9   11 d         -15.928 205.644 112.094  0.00  0.00     0.003 A 
ATOM     14  C10  11 d         -16.418 206.429 111.039  0.00  0.00     0.000 A 
ATOM     15  C11  11 d         -15.525 207.104 110.192  0.00  0.00     0.003 A 
ATOM     16  C12  11 d         -14.141 206.987 110.397  0.00  0.00     0.037 A 
ENDBRANCH  10  11
ENDBRANCH   9  10
ENDBRANCH   1   9
TORSDOF 6
ENDMDL
MODEL 4
REMARK VINA RESULT:      -6.0      1.850      3.343
REMARK  6 active torsions:
REMARK  status: ('A' for Active; 'I' for Inactive)
REMARK    1  A    between atoms: C1_1  and  C2_2 
REMARK    2  A    between atoms: C1_1  and  O2_7 
REMARK    3  A    between atoms: O2_7  and  C5_8 
REMARK    4  A    between atoms: C5_8  and  C6_9 
REMARK    5  A    between atoms: C6_9  and  O3_10 
REMARK    6  A    between atoms: O3_10  and  C7_11 
ROOT
ATOM      1  C5   11 d         -10.842 207.243 112.968  0.00  0.00     0.205 C 
ENDROOT
BRANCH   1   2
ATOM      2  O2   11 d         -11.754 207.940 113.859  0.00  0.00    -0.316 OA
BRANCH   2   3
ATOM      3  C1   11 d         -12.370 207.006 114.735  0.00  0.00     0.289 C 
ATOM      4  O1   11 d         -11.807 205.895 114.907  0.00  0.00    -0.260 OA
BRANCH   3   5
ATOM      5  C2   11 d         -13.607 207.337 115.518  0.00  0.00     0.020 C 
ATOM      6  C3   11 d         -13.644 207.474 116.868  0.00  0.00     0.069 C 
ATOM      7 Br1   11 d         -12.167 207.329 118.110  0.00  0.00    -0.063 Br
ATOM      8  C4   11 d         -14.915 207.445 114.756  0.00  0.00     0.055 C 
ENDBRANCH   3   5
ENDBRANCH   2   3
ENDBRANCH   1   2
BRANCH   1   9
ATOM      9  C6   11 d         -11.398 207.276 111.553  0.00  0.00     0.202 C 
BRANCH   9  10
ATOM     10  O3   11 d         -12.018 205.996 111.255  0.00  0.00    -0.349 OA
BRANCH  10  11
ATOM     11  C7   11 d         -13.429 206.154 111.216  0.00  0.00     0.068 A 
ATOM     12  C8   11 d         -14.012 207.013 110.268  0.00  0.00     0.037 A 
ATOM     13  C9   11 d         -15.409 207.115 110.175  0.00  0.00     0.003 A 
ATOM     14  C10  11 d         -16.227 206.340 111.012  0.00  0.00     0.000 A 
ATOM     15  C11  11 d         -15.648 205.454 111.934  0.00  0.00     0.003 A 
ATOM     16  C12  11 d         -14.250 205.352 112.025  0.00  0.00     0.037 A 
ENDBRANCH  10  11
ENDBRANCH   9  10
ENDBRANCH   1   9
TORSDOF 6
ENDMDL
MODEL 5
REMARK VINA RESULT:      -5.9      2.470      5.606
REMARK  6 active torsions:
REMARK  status: ('A' for Active; 'I' for Inactive)
REMARK    1  A    between atoms: C1_1  and  C2_2 
REMARK    2  A    between atoms: C1_1  and  O2_7 
REMARK    3  A    between atoms: O2_7  and  C5_8 
REMARK    4  A    between atoms: C5_8  and  C6_9 
REMARK    5  A    between atoms: C6_9  and  O3_10 
REMARK    6  A    between atoms: O3_10  and  C7_11 
ROOT
ATOM      1  C5   11 d         -13.833 206.651 113.512  0.00  0.00     0.205 C 
ENDROOT
BRANCH   1   2
ATOM      2  O2   11 d         -14.590 205.415 113.409  0.00  0.00    -0.316 OA
BRANCH   2   3
ATOM      3  C1   11 d         -15.001 205.219 112.064  0.00  0.00     0.289 C 
ATOM      4  O1   11 d         -14.573 204.205 111.455  0.00  0.00    -0.260 OA
BRANCH   3   5
ATOM      5  C2   11 d         -15.988 206.126 111.386  0.00  0.00     0.020 C 
ATOM      6  C3   11 d         -15.670 206.998 110.397  0.00  0.00     0.069 C 
ATOM      7 Br1   11 d         -13.937 207.282 109.583  0.00  0.00    -0.063 Br
ATOM      8  C4   11 d         -17.416 206.121 111.900  0.00  0.00     0.055 C 
ENDBRANCH   3   5
ENDBRANCH   2   3
ENDBRANCH   1   2
BRANCH   1   9
ATOM      9  C6   11 d         -12.347 206.329 113.532  0.00  0.00     0.202 C 
BRANCH   9  10
ATOM     10  O3   11 d         -11.692 207.164 114.526  0.00  0.00    -0.349 OA
BRANCH  10  11
ATOM     11  C7   11 d         -10.665 207.920 113.902  0.00  0.00     0.068 A 
ATOM     12  C8   11 d         -10.522 207.889 112.504  0.00  0.00     0.037 A 
ATOM     13  C9   11 d          -9.558 208.694 111.876  0.00  0.00     0.003 A 
ATOM     14  C10  11 d          -8.752 209.551 112.642  0.00  0.00     0.000 A 
ATOM     15  C11  11 d          -8.918 209.611 114.035  0.00  0.00     0.003 A 
ATOM     16  C12  11 d          -9.884 208.807 114.662  0.00  0.00     0.037 A 
ENDBRANCH  10  11
ENDBRANCH   9  10
ENDBRANCH   1   9
TORSDOF 6
ENDMDL
MODEL 6
REMARK VINA RESULT:      -5.9      2.649      3.851
REMARK  6 active torsions:
REMARK  status: ('A' for Active; 'I' for Inactive)
REMARK    1  A    between atoms: C1_1  and  C2_2 
REMARK    2  A    between atoms: C1_1  and  O2_7 
REMARK    3  A    between atoms: O2_7  and  C5_8 
REMARK    4  A    between atoms: C5_8  and  C6_9 
REMARK    5  A    between atoms: C6_9  and  O3_10 
REMARK    6  A    between atoms: O3_10  and  C7_11 
ROOT
ATOM      1  C5   11 d         -10.769 207.956 111.997  0.00  0.00     0.205 C 
ENDROOT
BRANCH   1   2
ATOM      2  O2   11 d          -9.472 207.738 112.615  0.00  0.00    -0.316 OA
BRANCH   2   3
ATOM      3  C1   11 d          -8.987 208.963 113.147  0.00  0.00     0.289 C 
ATOM      4  O1   11 d          -8.848 209.935 112.363  0.00  0.00    -0.260 OA
BRANCH   3   5
ATOM      5  C2   11 d          -8.725 209.152 114.614  0.00  0.00     0.020 C 
ATOM      6  C3   11 d          -7.510 209.449 115.140  0.00  0.00     0.069 C 
ATOM      7 Br1   11 d          -5.849 209.740 114.191  0.00  0.00    -0.063 Br
ATOM      8  C4   11 d          -9.878 208.916 115.571  0.00  0.00     0.055 C 
ENDBRANCH   3   5
ENDBRANCH   2   3
ENDBRANCH   1   2
BRANCH   1   9
ATOM      9  C6   11 d         -11.749 206.907 112.502  0.00  0.00     0.202 C 
BRANCH   9  10
ATOM     10  O3   11 d         -12.145 206.053 111.395  0.00  0.00    -0.349 OA
BRANCH  10  11
ATOM     11  C7   11 d         -13.552 206.129 111.222  0.00  0.00     0.068 A 
ATOM     12  C8   11 d         -14.403 205.427 112.092  0.00  0.00     0.037 A 
ATOM     13  C9   11 d         -15.797 205.558 111.974  0.00  0.00     0.003 A 
ATOM     14  C10  11 d         -16.341 206.412 111.002  0.00  0.00     0.000 A 
ATOM     15  C11  11 d         -15.492 207.143 110.156  0.00  0.00     0.003 A 
ATOM     16  C12  11 d         -14.099 207.012 110.276  0.00  0.00     0.037 A 
ENDBRANCH  10  11
ENDBRANCH   9  10
ENDBRANCH   1   9
TORSDOF 6
ENDMDL
MODEL 7
REMARK VINA RESULT:      -5.9      2.716      5.414
REMARK  6 active torsions:
REMARK  status: ('A' for Active; 'I' for Inactive)
REMARK    1  A    between atoms: C1_1  and  C2_2 
REMARK    2  A    between atoms: C1_1  and  O2_7 
REMARK    3  A    between atoms: O2_7  and  C5_8 
REMARK    4  A    between atoms: C5_8  and  C6_9 
REMARK    5  A    between atoms: C6_9  and  O3_10 
REMARK    6  A    between atoms: O3_10  and  C7_11 
ROOT
ATOM      1  C5   11 d         -14.098 206.699 113.697  0.00  0.00     0.205 C 
ENDROOT
BRANCH   1   2
ATOM      2  O2   11 d         -13.448 205.652 112.926  0.00  0.00    -0.316 OA
BRANCH   2   3
ATOM      3  C1   11 d         -14.188 205.407 111.738  0.00  0.00     0.289 C 
ATOM      4  O1   11 d         -14.545 204.226 111.495  0.00  0.00    -0.260 OA
BRANCH   3   5
ATOM      5  C2   11 d         -14.628 206.515 110.825  0.00  0.00     0.020 C 
ATOM      6  C3   11 d         -15.902 206.972 110.736  0.00  0.00     0.069 C 
ATOM      7 Br1   11 d         -17.443 206.380 111.746  0.00  0.00    -0.063 Br
ATOM      8  C4   11 d         -13.593 207.104 109.884  0.00  0.00     0.055 C 
ENDBRANCH   3   5
ENDBRANCH   2   3
ENDBRANCH   1   2
BRANCH   1   9
ATOM      9  C6   11 d         -13.077 207.770 114.049  0.00  0.00     0.202 C 
BRANCH   9  10
ATOM     10  O3   11 d         -11.799 207.138 114.326  0.00  0.00    -0.349 OA
BRANCH  10  11
ATOM     11  C7   11 d         -10.762 207.878 113.699  0.00  0.00     0.068 A 
ATOM     12  C8   11 d         -10.667 207.902 112.297  0.00  0.00     0.037 A 
ATOM     13  C9   11 d          -9.691 208.693 111.670  0.00  0.00     0.003 A 
ATOM     14  C10  11 d          -8.824 209.482 112.442  0.00  0.00     0.000 A 
ATOM     15  C11  11 d          -8.941 209.488 113.841  0.00  0.00     0.003 A 
ATOM     16  C12  11 d          -9.918 208.698 114.467  0.00  0.00     0.037 A 
ENDBRANCH  10  11
ENDBRANCH   9  10
ENDBRANCH   1   9
TORSDOF 6
ENDMDL
MODEL 8
REMARK VINA RESULT:      -5.7      1.828      2.587
REMARK  6 active torsions:
REMARK  status: ('A' for Active; 'I' for Inactive)
REMARK    1  A    between atoms: C1_1  and  C2_2 
REMARK    2  A    between atoms: C1_1  and  O2_7 
REMARK    3  A    between atoms: O2_7  and  C5_8 
REMARK    4  A    between atoms: C5_8  and  C6_9 
REMARK    5  A    between atoms: C6_9  and  O3_10 
REMARK    6  A    between atoms: O3_10  and  C7_11 
ROOT
ATOM      1  C5   11 d         -14.167 205.801 116.319  0.00  0.00     0.205 C 
ENDROOT
BRANCH   1   2
ATOM      2  O2   11 d         -13.402 207.018 116.532  0.00  0.00    -0.316 OA
BRANCH   2   3
ATOM      3  C1   11 d         -12.030 206.773 116.256  0.00  0.00     0.289 C 
ATOM      4  O1   11 d         -11.687 205.601 115.956  0.00  0.00    -0.260 OA
BRANCH   3   5
ATOM      5  C2   11 d         -11.009 207.874 116.226  0.00  0.00     0.020 C 
ATOM      6  C3   11 d         -10.438 208.355 115.093  0.00  0.00     0.069 C 
ATOM      7 Br1   11 d         -10.791 207.813 113.269  0.00  0.00    -0.063 Br
ATOM      8  C4   11 d         -10.528 208.424 117.555  0.00  0.00     0.055 C 
ENDBRANCH   3   5
ENDBRANCH   2   3
ENDBRANCH   1   2
BRANCH   1   9
ATOM      9  C6   11 d         -15.035 205.964 115.081  0.00  0.00     0.202 C 
BRANCH   9  10
ATOM     10  O3   11 d         -14.403 205.284 113.963  0.00  0.00    -0.349 OA
BRANCH  10  11
ATOM     11  C7   11 d         -14.832 205.880 112.747  0.00  0.00     0.068 A 
ATOM     12  C8   11 d         -13.901 206.138 111.727  0.00  0.00     0.037 A 
ATOM     13  C9   11 d         -14.331 206.657 110.495  0.00  0.00     0.003 A 
ATOM     14  C10  11 d         -15.696 206.894 110.272  0.00  0.00     0.000 A 
ATOM     15  C11  11 d         -16.633 206.603 111.277  0.00  0.00     0.003 A 
ATOM     16  C12  11 d         -16.201 206.083 112.508  0.00  0.00     0.037 A 
ENDBRANCH  10  11
ENDBRANCH   9  10
ENDBRANCH   1   9
TORSDOF 6
ENDMDL
MODEL 9
REMARK VINA RESULT:      -5.6      1.491      2.306
REMARK  6 active torsions:
REMARK  status: ('A' for Active; 'I' for Inactive)
REMARK    1  A    between atoms: C1_1  and  C2_2 
REMARK    2  A    between atoms: C1_1  and  O2_7 
REMARK    3  A    between atoms: O2_7  and  C5_8 
REMARK    4  A    between atoms: C5_8  and  C6_9 
REMARK    5  A    between atoms: C6_9  and  O3_10 
REMARK    6  A    between atoms: O3_10  and  C7_11 
ROOT
ATOM      1  C5   11 d         -12.466 208.547 114.977  0.00  0.00     0.205 C 
ENDROOT
BRANCH   1   2
ATOM      2  O2   11 d         -11.232 207.796 115.134  0.00  0.00    -0.316 OA
BRANCH   2   3
ATOM      3  C1   11 d         -10.978 207.045 113.955  0.00  0.00     0.289 C 
ATOM      4  O1   11 d         -11.110 205.796 114.009  0.00  0.00    -0.260 OA
BRANCH   3   5
ATOM      5  C2   11 d         -10.649 207.699 112.644  0.00  0.00     0.020 C 
ATOM      6  C3   11 d          -9.721 208.675 112.489  0.00  0.00     0.069 C 
ATOM      7 Br1   11 d          -8.575 209.443 113.846  0.00  0.00    -0.063 Br
ATOM      8  C4   11 d         -11.468 207.295 111.432  0.00  0.00     0.055 C 
ENDBRANCH   3   5
ENDBRANCH   2   3
ENDBRANCH   1   2
BRANCH   1   9
ATOM      9  C6   11 d         -13.649 207.598 115.092  0.00  0.00     0.202 C 
BRANCH   9  10
ATOM     10  O3   11 d         -14.695 208.028 114.179  0.00  0.00    -0.349 OA
BRANCH  10  11
ATOM     11  C7   11 d         -14.719 207.164 113.052  0.00  0.00     0.068 A 
ATOM     12  C8   11 d         -14.424 205.800 113.208  0.00  0.00     0.037 A 
ATOM     13  C9   11 d         -14.520 204.927 112.111  0.00  0.00     0.003 A 
ATOM     14  C10  11 d         -14.937 205.413 110.862  0.00  0.00     0.000 A 
ATOM     15  C11  11 d         -15.268 206.769 110.712  0.00  0.00     0.003 A 
ATOM     16  C12  11 d         -15.173 207.640 111.810  0.00  0.00     0.037 A 
ENDBRANCH  10  11
ENDBRANCH   9  10
ENDBRANCH   1   9
TORSDOF 6
ENDMDL
MODEL 10
REMARK VINA RESULT:      -5.3      3.272      4.745
REMARK  6 active torsions:
REMARK  status: ('A' for Active; 'I' for Inactive)
REMARK    1  A    between atoms: C1_1  and  C2_2 
REMARK    2  A    between atoms: C1_1  and  O2_7 
REMARK    3  A    between atoms: O2_7  and  C5_8 
REMARK    4  A    between atoms: C5_8  and  C6_9 
REMARK    5  A    between atoms: C6_9  and  O3_10 
REMARK    6  A    between atoms: O3_10  and  C7_11 
ROOT
ATOM      1  C5   11 d         -10.040 209.024 115.927  0.00  0.00     0.205 C 
ENDROOT
BRANCH   1   2
ATOM      2  O2   11 d          -8.657 208.702 115.618  0.00  0.00    -0.316 OA
BRANCH   2   3
ATOM      3  C1   11 d          -8.175 209.586 114.616  0.00  0.00     0.289 C 
ATOM      4  O1   11 d          -9.017 210.206 113.918  0.00  0.00    -0.260 OA
BRANCH   3   5
ATOM      5  C2   11 d          -6.711 209.865 114.430  0.00  0.00     0.020 C 
ATOM      6  C3   11 d          -5.973 209.410 113.387  0.00  0.00     0.069 C 
ATOM      7 Br1   11 d          -6.579 208.351 111.883  0.00  0.00    -0.063 Br
ATOM      8  C4   11 d          -5.998 210.638 115.523  0.00  0.00     0.055 C 
ENDBRANCH   3   5
ENDBRANCH   2   3
ENDBRANCH   1   2
BRANCH   1   9
ATOM      9  C6   11 d         -10.937 207.889 115.458  0.00  0.00     0.202 C 
BRANCH   9  10
ATOM     10  O3   11 d         -12.162 208.446 114.910  0.00  0.00    -0.349 OA
BRANCH  10  11
ATOM     11  C7   11 d         -12.402 207.885 113.627  0.00  0.00     0.068 A 
ATOM     12  C8   11 d         -11.329 207.669 112.746  0.00  0.00     0.037 A 
ATOM     13  C9   11 d         -11.550 207.045 111.507  0.00  0.00     0.003 A 
ATOM     14  C10  11 d         -12.839 206.612 111.159  0.00  0.00     0.000 A 
ATOM     15  C11  11 d         -13.905 206.794 112.053  0.00  0.00     0.003 A 
ATOM     16  C12  11 d         -13.684 207.417 113.292  0.00  0.00     0.037 A 
ENDBRANCH  10  11
ENDBRANCH   9  10
ENDBRANCH   1   9
TORSDOF 6
ENDMDL
