MODEL 1
REMARK VINA RESULT:      -8.5      0.000      0.000
REMARK  1 active torsions:
REMARK  status: ('A' for Active; 'I' for Inactive)
REMARK    1  A    between atoms: C15_23  and  C17_25 
ROOT
ATOM      1  C1   11 d         -10.045 208.216 113.161  0.00  0.00     0.094 A 
ATOM      2  C2   11 d          -9.066 208.907 113.864  0.00  0.00     0.104 A 
ATOM      3  C3   11 d          -8.055 209.579 113.168  0.00  0.00     0.266 A 
ATOM      4  O1   11 d          -7.155 210.215 113.771  0.00  0.00    -0.267 OA
ATOM      5  N1   11 d          -8.066 209.525 111.800  0.00  0.00    -0.317 N 
ATOM      6  C4   11 d          -9.036 208.832 111.119  0.00  0.00     0.210 A 
ATOM      7  N2   11 d         -10.026 208.178 111.800  0.00  0.00    -0.242 NA
ATOM      8  S1   11 d          -9.305 208.775 115.341  0.00  0.00    -0.062 SA
ATOM      9  C5   11 d         -10.542 207.924 115.357  0.00  0.00     0.114 A 
ATOM     10  C6   11 d         -10.945 207.624 114.059  0.00  0.00     0.037 A 
ATOM     11  C7   11 d         -12.082 206.819 113.843  0.00  0.00    -0.028 A 
ATOM     12  C8   11 d         -12.803 206.367 114.982  0.00  0.00     0.019 A 
ATOM     13  C9   11 d         -12.332 206.696 116.291  0.00  0.00     0.136 A 
ATOM     14  N3   11 d         -11.214 207.474 116.442  0.00  0.00    -0.223 NA
ATOM     15  N4   11 d         -12.953 206.275 117.463  0.00  0.00    -0.361 N 
ATOM     16  C10  11 d         -12.227 205.505 118.414  0.00  0.00     0.150 C 
ATOM     17  C11  11 d         -12.396 206.092 119.821  0.00  0.00     0.187 C 
ATOM     18  O2   11 d         -13.806 206.257 120.143  0.00  0.00    -0.388 OA
ATOM     19  C12  11 d         -14.444 207.147 119.186  0.00  0.00     0.187 C 
ATOM     20  C13  11 d         -14.306 206.615 117.752  0.00  0.00     0.150 C 
ATOM     21  C14  11 d         -14.010 205.471 114.793  0.00  0.00     0.212 C 
ATOM     22  O3   11 d         -14.230 205.025 113.423  0.00  0.00    -0.376 OA
ATOM     23  C15  11 d         -14.056 206.059 112.410  0.00  0.00     0.061 C 
ATOM     24  C16  11 d         -12.581 206.528 112.447  0.00  0.00     0.078 C 
ATOM     25  C19  11 d         -14.318 205.382 111.050  0.00  0.00     0.046 C 
ATOM     26  H1   11 d          -7.313 210.022 111.263  0.00  0.00     0.170 HD
ENDROOT
BRANCH  23  27
ATOM     27  C17  11 d         -15.028 207.267 112.596  0.00  0.00     0.033 C 
ATOM     28  C18  11 d         -16.258 207.275 111.685  0.00  0.00     0.008 C 
ENDBRANCH  23  27
TORSDOF 1
ENDMDL
MODEL 2
REMARK VINA RESULT:      -8.2      2.169      5.117
REMARK  1 active torsions:
REMARK  status: ('A' for Active; 'I' for Inactive)
REMARK    1  A    between atoms: C15_23  and  C17_25 
ROOT
ATOM      1  C1   11 d          -9.412 208.443 114.390  0.00  0.00     0.094 A 
ATOM      2  C2   11 d          -8.740 208.557 113.180  0.00  0.00     0.104 A 
ATOM      3  C3   11 d          -7.389 208.922 113.167  0.00  0.00     0.266 A 
ATOM      4  O1   11 d          -6.750 209.033 112.091  0.00  0.00    -0.267 OA
ATOM      5  N1   11 d          -6.773 209.164 114.365  0.00  0.00    -0.317 N 
ATOM      6  C4   11 d          -7.452 209.054 115.554  0.00  0.00     0.210 A 
ATOM      7  N2   11 d          -8.772 208.694 115.565  0.00  0.00    -0.242 NA
ATOM      8  S1   11 d          -9.673 208.248 112.044  0.00  0.00    -0.062 SA
ATOM      9  C5   11 d         -10.942 207.950 112.787  0.00  0.00     0.114 A 
ATOM     10  C6   11 d         -10.744 208.070 114.160  0.00  0.00     0.037 A 
ATOM     11  C7   11 d         -11.815 207.847 115.048  0.00  0.00    -0.028 A 
ATOM     12  C8   11 d         -13.070 207.468 114.496  0.00  0.00     0.019 A 
ATOM     13  C9   11 d         -13.216 207.374 113.077  0.00  0.00     0.136 A 
ATOM     14  N3   11 d         -12.142 207.613 112.260  0.00  0.00    -0.223 NA
ATOM     15  N4   11 d         -14.410 207.040 112.446  0.00  0.00    -0.361 N 
ATOM     16  C10  11 d         -14.992 207.937 111.506  0.00  0.00     0.150 C 
ATOM     17  C11  11 d         -15.363 207.196 110.216  0.00  0.00     0.187 C 
ATOM     18  O2   11 d         -16.183 206.030 110.510  0.00  0.00    -0.388 OA
ATOM     19  C12  11 d         -15.468 205.115 111.385  0.00  0.00     0.187 C 
ATOM     20  C13  11 d         -15.064 205.800 112.698  0.00  0.00     0.150 C 
ATOM     21  C14  11 d         -14.255 207.253 115.415  0.00  0.00     0.212 C 
ATOM     22  O3   11 d         -14.020 207.615 116.807  0.00  0.00    -0.376 OA
ATOM     23  C15  11 d         -12.732 207.187 117.340  0.00  0.00     0.061 C 
ATOM     24  C16  11 d         -11.617 207.908 116.545  0.00  0.00     0.078 C 
ATOM     25  C19  11 d         -12.682 207.675 118.801  0.00  0.00     0.046 C 
ATOM     26  H1   11 d          -5.760 209.442 114.373  0.00  0.00     0.170 HD
ENDROOT
BRANCH  23  27
ATOM     27  C17  11 d         -12.535 205.638 117.293  0.00  0.00     0.033 C 
ATOM     28  C18  11 d         -13.724 204.803 117.775  0.00  0.00     0.008 C 
ENDBRANCH  23  27
TORSDOF 1
ENDMDL
MODEL 3
REMARK VINA RESULT:      -8.2      1.706      6.180
REMARK  1 active torsions:
REMARK  status: ('A' for Active; 'I' for Inactive)
REMARK    1  A    between atoms: C15_23  and  C17_25 
ROOT
ATOM      1  C1   11 d         -12.927 206.135 117.905  0.00  0.00     0.094 A 
ATOM      2  C2   11 d         -11.990 206.088 118.928  0.00  0.00     0.104 A 
ATOM      3  C3   11 d         -12.335 205.523 120.161  0.00  0.00     0.266 A 
ATOM      4  O1   11 d         -11.512 205.463 121.108  0.00  0.00    -0.267 OA
ATOM      5  N1   11 d         -13.605 205.036 120.317  0.00  0.00    -0.317 N 
ATOM      6  C4   11 d         -14.524 205.095 119.298  0.00  0.00     0.210 A 
ATOM      7  N2   11 d         -14.184 205.645 118.092  0.00  0.00    -0.242 NA
ATOM      8  S1   11 d         -10.700 206.707 118.471  0.00  0.00    -0.062 SA
ATOM      9  C5   11 d         -11.051 207.098 117.065  0.00  0.00     0.114 A 
ATOM     10  C6   11 d         -12.364 206.740 116.772  0.00  0.00     0.037 A 
ATOM     11  C7   11 d         -12.906 207.030 115.504  0.00  0.00    -0.028 A 
ATOM     12  C8   11 d         -12.063 207.658 114.547  0.00  0.00     0.019 A 
ATOM     13  C9   11 d         -10.728 208.015 114.911  0.00  0.00     0.136 A 
ATOM     14  N3   11 d         -10.256 207.718 116.163  0.00  0.00    -0.223 NA
ATOM     15  N4   11 d          -9.840 208.658 114.054  0.00  0.00    -0.361 N 
ATOM     16  C10  11 d          -9.278 209.913 114.424  0.00  0.00     0.150 C 
ATOM     17  C11  11 d          -7.757 209.896 114.229  0.00  0.00     0.187 C 
ATOM     18  O2   11 d          -7.415 209.467 112.881  0.00  0.00    -0.388 OA
ATOM     19  C12  11 d          -7.933 208.132 112.628  0.00  0.00     0.187 C 
ATOM     20  C13  11 d          -9.456 208.081 112.810  0.00  0.00     0.150 C 
ATOM     21  C14  11 d         -12.620 208.017 113.184  0.00  0.00     0.212 C 
ATOM     22  O3   11 d         -14.055 207.811 113.039  0.00  0.00    -0.376 OA
ATOM     23  C15  11 d         -14.553 206.564 113.606  0.00  0.00     0.061 C 
ATOM     24  C16  11 d         -14.306 206.597 115.134  0.00  0.00     0.078 C 
ATOM     25  C19  11 d         -16.074 206.551 113.359  0.00  0.00     0.046 C 
ATOM     26  H1   11 d         -13.880 204.611 121.237  0.00  0.00     0.170 HD
ENDROOT
BRANCH  23  27
ATOM     27  C17  11 d         -13.902 205.297 112.966  0.00  0.00     0.033 C 
ATOM     28  C18  11 d         -14.567 204.786 111.685  0.00  0.00     0.008 C 
ENDBRANCH  23  27
TORSDOF 1
ENDMDL
MODEL 4
REMARK VINA RESULT:      -8.1      2.886      5.862
REMARK  1 active torsions:
REMARK  status: ('A' for Active; 'I' for Inactive)
REMARK    1  A    between atoms: C15_23  and  C17_25 
ROOT
ATOM      1  C1   11 d         -12.858 206.951 114.466  0.00  0.00     0.094 A 
ATOM      2  C2   11 d         -13.622 206.124 115.279  0.00  0.00     0.104 A 
ATOM      3  C3   11 d         -14.826 205.597 114.797  0.00  0.00     0.266 A 
ATOM      4  O1   11 d         -15.542 204.845 115.504  0.00  0.00    -0.267 OA
ATOM      5  N1   11 d         -15.214 205.926 113.527  0.00  0.00    -0.317 N 
ATOM      6  C4   11 d         -14.451 206.751 112.737  0.00  0.00     0.210 A 
ATOM      7  N2   11 d         -13.273 207.263 113.207  0.00  0.00    -0.242 NA
ATOM      8  S1   11 d         -12.954 205.957 116.614  0.00  0.00    -0.062 SA
ATOM      9  C5   11 d         -11.725 206.798 116.428  0.00  0.00     0.114 A 
ATOM     10  C6   11 d         -11.705 207.358 115.154  0.00  0.00     0.037 A 
ATOM     11  C7   11 d         -10.642 208.200 114.771  0.00  0.00    -0.028 A 
ATOM     12  C8   11 d          -9.596 208.419 115.710  0.00  0.00     0.019 A 
ATOM     13  C9   11 d          -9.679 207.828 117.009  0.00  0.00     0.136 A 
ATOM     14  N3   11 d         -10.743 207.026 117.330  0.00  0.00    -0.223 NA
ATOM     15  N4   11 d          -8.721 208.010 118.001  0.00  0.00    -0.361 N 
ATOM     16  C10  11 d          -9.096 208.566 119.257  0.00  0.00     0.150 C 
ATOM     17  C11  11 d          -8.553 207.708 120.407  0.00  0.00     0.187 C 
ATOM     18  O2   11 d          -7.121 207.494 120.256  0.00  0.00    -0.388 OA
ATOM     19  C12  11 d          -6.838 206.821 118.998  0.00  0.00     0.187 C 
ATOM     20  C13  11 d          -7.363 207.631 117.804  0.00  0.00     0.150 C 
ATOM     21  C14  11 d          -8.452 209.346 115.349  0.00  0.00     0.212 C 
ATOM     22  O3   11 d          -8.621 210.061 114.091  0.00  0.00    -0.376 OA
ATOM     23  C15  11 d          -9.137 209.252 112.993  0.00  0.00     0.061 C 
ATOM     24  C16  11 d         -10.558 208.772 113.375  0.00  0.00     0.078 C 
ATOM     25  C19  11 d          -9.251 210.192 111.777  0.00  0.00     0.046 C 
ATOM     26  H1   11 d         -16.116 205.541 113.151  0.00  0.00     0.170 HD
ENDROOT
BRANCH  23  27
ATOM     27  C17  11 d          -8.217 208.040 112.642  0.00  0.00     0.033 C 
ATOM     28  C18  11 d          -6.963 208.373 111.830  0.00  0.00     0.008 C 
ENDBRANCH  23  27
TORSDOF 1
ENDMDL
MODEL 5
REMARK VINA RESULT:      -7.8      3.467      8.169
REMARK  1 active torsions:
REMARK  status: ('A' for Active; 'I' for Inactive)
REMARK    1  A    between atoms: C15_23  and  C17_25 
ROOT
ATOM      1  C1   11 d         -11.820 207.630 117.566  0.00  0.00     0.094 A 
ATOM      2  C2   11 d         -12.538 207.861 116.400  0.00  0.00     0.104 A 
ATOM      3  C3   11 d         -13.920 207.645 116.380  0.00  0.00     0.266 A 
ATOM      4  O1   11 d         -14.600 207.845 115.343  0.00  0.00    -0.267 OA
ATOM      5  N1   11 d         -14.522 207.202 117.527  0.00  0.00    -0.317 N 
ATOM      6  C4   11 d         -13.799 206.972 118.672  0.00  0.00     0.210 A 
ATOM      7  N2   11 d         -12.448 207.186 118.690  0.00  0.00    -0.242 NA
ATOM      8  S1   11 d         -11.612 208.323 115.311  0.00  0.00    -0.062 SA
ATOM      9  C5   11 d         -10.295 208.316 116.032  0.00  0.00     0.114 A 
ATOM     10  C6   11 d         -10.463 207.910 117.352  0.00  0.00     0.037 A 
ATOM     11  C7   11 d          -9.347 207.818 118.208  0.00  0.00    -0.028 A 
ATOM     12  C8   11 d          -8.076 208.184 117.686  0.00  0.00     0.019 A 
ATOM     13  C9   11 d          -7.964 208.581 116.317  0.00  0.00     0.136 A 
ATOM     14  N3   11 d          -9.082 208.642 115.528  0.00  0.00    -0.223 NA
ATOM     15  N4   11 d          -6.760 208.927 115.711  0.00  0.00    -0.361 N 
ATOM     16  C10  11 d          -6.310 208.211 114.566  0.00  0.00     0.150 C 
ATOM     17  C11  11 d          -5.899 209.184 113.453  0.00  0.00     0.187 C 
ATOM     18  O2   11 d          -4.947 210.164 113.953  0.00  0.00    -0.388 OA
ATOM     19  C12  11 d          -5.530 210.926 115.046  0.00  0.00     0.187 C 
ATOM     20  C13  11 d          -5.966 210.005 116.195  0.00  0.00     0.150 C 
ATOM     21  C14  11 d          -6.847 208.065 118.564  0.00  0.00     0.212 C 
ATOM     22  O3   11 d          -7.077 207.424 119.852  0.00  0.00    -0.376 OA
ATOM     23  C15  11 d          -8.293 207.848 120.536  0.00  0.00     0.061 C 
ATOM     24  C16  11 d          -9.504 207.440 119.663  0.00  0.00     0.078 C 
ATOM     25  C19  11 d          -8.352 207.050 121.853  0.00  0.00     0.046 C 
ATOM     26  H1   11 d         -15.559 207.033 117.528  0.00  0.00     0.170 HD
ENDROOT
BRANCH  23  27
ATOM     27  C17  11 d          -8.320 209.379 120.843  0.00  0.00     0.033 C 
ATOM     28  C18  11 d          -7.248 209.879 121.815  0.00  0.00     0.008 C 
ENDBRANCH  23  27
TORSDOF 1
ENDMDL
MODEL 6
REMARK VINA RESULT:      -7.7      3.354      6.656
REMARK  1 active torsions:
REMARK  status: ('A' for Active; 'I' for Inactive)
REMARK    1  A    between atoms: C15_23  and  C17_25 
ROOT
ATOM      1  C1   11 d         -11.906 207.476 116.263  0.00  0.00     0.094 A 
ATOM      2  C2   11 d         -12.376 206.742 117.344  0.00  0.00     0.104 A 
ATOM      3  C3   11 d         -13.707 206.310 117.364  0.00  0.00     0.266 A 
ATOM      4  O1   11 d         -14.165 205.643 118.325  0.00  0.00    -0.267 OA
ATOM      5  N1   11 d         -14.509 206.638 116.305  0.00  0.00    -0.317 N 
ATOM      6  C4   11 d         -14.033 207.371 115.246  0.00  0.00     0.210 A 
ATOM      7  N2   11 d         -12.731 207.790 115.226  0.00  0.00    -0.242 NA
ATOM      8  S1   11 d         -11.279 206.552 118.352  0.00  0.00    -0.062 SA
ATOM      9  C5   11 d         -10.146 207.277 117.684  0.00  0.00     0.114 A 
ATOM     10  C6   11 d         -10.555 207.798 116.460  0.00  0.00     0.037 A 
ATOM     11  C7   11 d          -9.649 208.533 115.670  0.00  0.00    -0.028 A 
ATOM     12  C8   11 d          -8.319 208.685 116.149  0.00  0.00     0.019 A 
ATOM     13  C9   11 d          -7.962 208.138 117.421  0.00  0.00     0.136 A 
ATOM     14  N3   11 d          -8.888 207.442 118.152  0.00  0.00    -0.223 NA
ATOM     15  N4   11 d          -6.695 208.262 117.985  0.00  0.00    -0.361 N 
ATOM     16  C10  11 d          -6.542 208.882 119.257  0.00  0.00     0.150 C 
ATOM     17  C11  11 d          -5.678 208.010 120.177  0.00  0.00     0.187 C 
ATOM     18  O2   11 d          -4.421 207.667 119.529  0.00  0.00    -0.388 OA
ATOM     19  C12  11 d          -4.669 206.939 118.295  0.00  0.00     0.187 C 
ATOM     20  C13  11 d          -5.536 207.760 117.329  0.00  0.00     0.150 C 
ATOM     21  C14  11 d          -7.324 209.497 115.345  0.00  0.00     0.212 C 
ATOM     22  O3   11 d          -7.891 210.191 114.196  0.00  0.00    -0.376 OA
ATOM     23  C15  11 d          -8.831 209.401 113.409  0.00  0.00     0.061 C 
ATOM     24  C16  11 d         -10.043 209.058 114.308  0.00  0.00     0.078 C 
ATOM     25  C19  11 d          -9.315 210.314 112.266  0.00  0.00     0.046 C 
ATOM     26  H1   11 d         -15.512 206.324 116.306  0.00  0.00     0.170 HD
ENDROOT
BRANCH  23  27
ATOM     27  C17  11 d          -8.194 208.104 112.817  0.00  0.00     0.033 C 
ATOM     28  C18  11 d          -7.053 208.320 111.820  0.00  0.00     0.008 C 
ENDBRANCH  23  27
TORSDOF 1
ENDMDL
MODEL 7
REMARK VINA RESULT:      -7.6      3.324      7.194
REMARK  1 active torsions:
REMARK  status: ('A' for Active; 'I' for Inactive)
REMARK    1  A    between atoms: C15_23  and  C17_25 
ROOT
ATOM      1  C1   11 d          -9.495 206.457 119.431  0.00  0.00     0.094 A 
ATOM      2  C2   11 d          -8.344 206.173 120.154  0.00  0.00     0.104 A 
ATOM      3  C3   11 d          -8.438 205.481 121.367  0.00  0.00     0.266 A 
ATOM      4  O1   11 d          -7.418 205.206 122.046  0.00  0.00    -0.267 OA
ATOM      5  N1   11 d          -9.681 205.110 121.805  0.00  0.00    -0.317 N 
ATOM      6  C4   11 d         -10.812 205.403 121.083  0.00  0.00     0.210 A 
ATOM      7  N2   11 d         -10.718 206.077 119.896  0.00  0.00    -0.242 NA
ATOM      8  S1   11 d          -7.141 206.715 119.436  0.00  0.00    -0.062 SA
ATOM      9  C5   11 d          -7.781 207.331 118.227  0.00  0.00     0.114 A 
ATOM     10  C6   11 d          -9.161 207.153 118.260  0.00  0.00     0.037 A 
ATOM     11  C7   11 d          -9.963 207.670 117.223  0.00  0.00    -0.028 A 
ATOM     12  C8   11 d          -9.313 208.336 116.148  0.00  0.00     0.019 A 
ATOM     13  C9   11 d          -7.894 208.500 116.176  0.00  0.00     0.136 A 
ATOM     14  N3   11 d          -7.164 207.985 117.216  0.00  0.00    -0.223 NA
ATOM     15  N4   11 d          -7.175 209.162 115.185  0.00  0.00    -0.361 N 
ATOM     16  C10  11 d          -6.372 210.288 115.523  0.00  0.00     0.150 C 
ATOM     17  C11  11 d          -4.967 210.143 114.926  0.00  0.00     0.187 C 
ATOM     18  O2   11 d          -5.040 209.873 113.498  0.00  0.00    -0.388 OA
ATOM     19  C12  11 d          -5.780 208.646 113.251  0.00  0.00     0.187 C 
ATOM     20  C13  11 d          -7.200 208.726 113.830  0.00  0.00     0.150 C 
ATOM     21  C14  11 d         -10.144 208.936 115.031  0.00  0.00     0.212 C 
ATOM     22  O3   11 d         -11.583 208.900 115.255  0.00  0.00    -0.376 OA
ATOM     23  C15  11 d         -12.085 207.644 115.799  0.00  0.00     0.061 C 
ATOM     24  C16  11 d         -11.457 207.439 117.199  0.00  0.00     0.078 C 
ATOM     25  C19  11 d         -13.607 207.821 115.970  0.00  0.00     0.046 C 
ATOM     26  H1   11 d          -9.769 204.592 122.714  0.00  0.00     0.170 HD
ENDROOT
BRANCH  23  27
ATOM     27  C17  11 d         -11.796 206.418 114.876  0.00  0.00     0.033 C 
ATOM     28  C18  11 d         -12.475 206.447 113.504  0.00  0.00     0.008 C 
ENDBRANCH  23  27
TORSDOF 1
ENDMDL
MODEL 8
REMARK VINA RESULT:      -7.6      2.145      6.255
REMARK  1 active torsions:
REMARK  status: ('A' for Active; 'I' for Inactive)
REMARK    1  A    between atoms: C15_23  and  C17_25 
ROOT
ATOM      1  C1   11 d         -14.511 205.020 116.375  0.00  0.00     0.094 A 
ATOM      2  C2   11 d         -13.904 204.840 117.611  0.00  0.00     0.104 A 
ATOM      3  C3   11 d         -14.539 204.069 118.591  0.00  0.00     0.266 A 
ATOM      4  O1   11 d         -14.019 203.884 119.719  0.00  0.00    -0.267 OA
ATOM      5  N1   11 d         -15.756 203.518 118.292  0.00  0.00    -0.317 N 
ATOM      6  C4   11 d         -16.348 203.710 117.068  0.00  0.00     0.210 A 
ATOM      7  N2   11 d         -15.724 204.461 116.110  0.00  0.00    -0.242 NA
ATOM      8  S1   11 d         -12.593 205.572 117.650  0.00  0.00    -0.062 SA
ATOM      9  C5   11 d         -12.559 206.175 116.276  0.00  0.00     0.114 A 
ATOM     10  C6   11 d         -13.699 205.822 115.560  0.00  0.00     0.037 A 
ATOM     11  C7   11 d         -13.880 206.296 114.245  0.00  0.00    -0.028 A 
ATOM     12  C8   11 d         -12.853 207.103 113.682  0.00  0.00     0.019 A 
ATOM     13  C9   11 d         -11.711 207.443 114.471  0.00  0.00     0.136 A 
ATOM     14  N3   11 d         -11.594 206.963 115.749  0.00  0.00    -0.223 NA
ATOM     15  N4   11 d         -10.672 208.250 114.017  0.00  0.00    -0.361 N 
ATOM     16  C10  11 d         -10.344 209.446 114.716  0.00  0.00     0.150 C 
ATOM     17  C11  11 d          -8.834 209.516 114.978  0.00  0.00     0.187 C 
ATOM     18  O2   11 d          -8.088 209.327 113.743  0.00  0.00    -0.388 OA
ATOM     19  C12  11 d          -8.400 208.033 113.156  0.00  0.00     0.187 C 
ATOM     20  C13  11 d          -9.903 207.898 112.872  0.00  0.00     0.150 C 
ATOM     21  C14  11 d         -13.025 207.661 112.283  0.00  0.00     0.212 C 
ATOM     22  O3   11 d         -14.337 207.430 111.692  0.00  0.00    -0.376 OA
ATOM     23  C15  11 d         -14.873 206.089 111.899  0.00  0.00     0.061 C 
ATOM     24  C16  11 d         -15.075 205.880 113.419  0.00  0.00     0.078 C 
ATOM     25  C19  11 d         -16.253 206.063 111.215  0.00  0.00     0.046 C 
ATOM     26  H1   11 d         -16.247 202.938 119.018  0.00  0.00     0.170 HD
ENDROOT
BRANCH  23  27
ATOM     27  C17  11 d         -13.964 204.969 111.301  0.00  0.00     0.033 C 
ATOM     28  C18  11 d         -14.603 203.582 111.196  0.00  0.00     0.008 C 
ENDBRANCH  23  27
TORSDOF 1
ENDMDL
MODEL 9
REMARK VINA RESULT:      -7.3      3.864      7.662
REMARK  1 active torsions:
REMARK  status: ('A' for Active; 'I' for Inactive)
REMARK    1  A    between atoms: C15_23  and  C17_25 
ROOT
ATOM      1  C1   11 d         -10.113 207.496 117.346  0.00  0.00     0.094 A 
ATOM      2  C2   11 d         -10.152 206.907 118.603  0.00  0.00     0.104 A 
ATOM      3  C3   11 d         -11.322 206.273 119.037  0.00  0.00     0.266 A 
ATOM      4  O1   11 d         -11.392 205.729 120.167  0.00  0.00    -0.267 OA
ATOM      5  N1   11 d         -12.402 206.264 118.197  0.00  0.00    -0.317 N 
ATOM      6  C4   11 d         -12.352 206.857 116.959  0.00  0.00     0.210 A 
ATOM      7  N2   11 d         -11.207 207.473 116.535  0.00  0.00    -0.242 NA
ATOM      8  S1   11 d          -8.832 207.090 119.296  0.00  0.00    -0.062 SA
ATOM      9  C5   11 d          -8.065 207.854 118.257  0.00  0.00     0.114 A 
ATOM     10  C6   11 d          -8.850 208.066 117.128  0.00  0.00     0.037 A 
ATOM     11  C7   11 d          -8.328 208.780 116.030  0.00  0.00    -0.028 A 
ATOM     12  C8   11 d          -6.983 209.234 116.111  0.00  0.00     0.019 A 
ATOM     13  C9   11 d          -6.230 208.998 117.303  0.00  0.00     0.136 A 
ATOM     14  N3   11 d          -6.793 208.306 118.344  0.00  0.00    -0.223 NA
ATOM     15  N4   11 d          -4.920 209.429 117.485  0.00  0.00    -0.361 N 
ATOM     16  C10  11 d          -4.600 210.291 118.573  0.00  0.00     0.150 C 
ATOM     17  C11  11 d          -3.382 209.758 119.338  0.00  0.00     0.187 C 
ATOM     18  O2   11 d          -2.272 209.512 118.430  0.00  0.00    -0.388 OA
ATOM     19  C12  11 d          -2.650 208.537 117.418  0.00  0.00     0.187 C 
ATOM     20  C13  11 d          -3.871 209.012 116.617  0.00  0.00     0.150 C 
ATOM     21  C14  11 d          -6.396 210.036 114.967  0.00  0.00     0.212 C 
ATOM     22  O3   11 d          -7.350 210.402 113.928  0.00  0.00    -0.376 OA
ATOM     23  C15  11 d          -8.267 209.337 113.537  0.00  0.00     0.061 C 
ATOM     24  C16  11 d          -9.134 208.973 114.766  0.00  0.00     0.078 C 
ATOM     25  C19  11 d          -9.185 209.931 112.451  0.00  0.00     0.046 C 
ATOM     26  H1   11 d         -13.289 205.795 118.510  0.00  0.00     0.170 HD
ENDROOT
BRANCH  23  27
ATOM     27  C17  11 d          -7.535 208.075 112.979  0.00  0.00     0.033 C 
ATOM     28  C18  11 d          -6.678 208.303 111.731  0.00  0.00     0.008 C 
ENDBRANCH  23  27
TORSDOF 1
ENDMDL
MODEL 10
REMARK VINA RESULT:      -7.1      2.963      4.834
REMARK  1 active torsions:
REMARK  status: ('A' for Active; 'I' for Inactive)
REMARK    1  A    between atoms: C15_23  and  C17_25 
ROOT
ATOM      1  C1   11 d         -11.289 207.246 113.915  0.00  0.00     0.094 A 
ATOM      2  C2   11 d         -10.488 207.996 113.063  0.00  0.00     0.104 A 
ATOM      3  C3   11 d         -10.782 208.044 111.696  0.00  0.00     0.266 A 
ATOM      4  O1   11 d         -10.080 208.713 110.897  0.00  0.00    -0.267 OA
ATOM      5  N1   11 d         -11.860 207.334 111.241  0.00  0.00    -0.317 N 
ATOM      6  C4   11 d         -12.640 206.591 112.093  0.00  0.00     0.210 A 
ATOM      7  N2   11 d         -12.353 206.548 113.430  0.00  0.00    -0.242 NA
ATOM      8  S1   11 d          -9.380 208.647 113.841  0.00  0.00    -0.062 SA
ATOM      9  C5   11 d          -9.678 208.158 115.229  0.00  0.00     0.114 A 
ATOM     10  C6   11 d         -10.807 207.345 115.228  0.00  0.00     0.037 A 
ATOM     11  C7   11 d         -11.257 206.763 116.430  0.00  0.00    -0.028 A 
ATOM     12  C8   11 d         -10.544 207.065 117.623  0.00  0.00     0.019 A 
ATOM     13  C9   11 d          -9.383 207.896 117.559  0.00  0.00     0.136 A 
ATOM     14  N3   11 d          -8.984 208.426 116.359  0.00  0.00    -0.223 NA
ATOM     15  N4   11 d          -8.605 208.221 118.666  0.00  0.00    -0.361 N 
ATOM     16  C10  11 d          -7.220 207.892 118.683  0.00  0.00     0.150 C 
ATOM     17  C11  11 d          -6.385 209.110 119.099  0.00  0.00     0.187 C 
ATOM     18  O2   11 d          -6.877 209.669 120.349  0.00  0.00    -0.388 OA
ATOM     19  C12  11 d          -8.265 210.081 120.208  0.00  0.00     0.187 C 
ATOM     20  C13  11 d          -9.156 208.903 119.788  0.00  0.00     0.150 C 
ATOM     21  C14  11 d         -10.975 206.432 118.931  0.00  0.00     0.212 C 
ATOM     22  O3   11 d         -12.022 205.426 118.804  0.00  0.00    -0.376 OA
ATOM     23  C15  11 d         -13.106 205.783 117.897  0.00  0.00     0.061 C 
ATOM     24  C16  11 d         -12.516 205.928 116.474  0.00  0.00     0.078 C 
ATOM     25  C19  11 d         -14.085 204.592 117.900  0.00  0.00     0.046 C 
ATOM     26  H1   11 d         -12.093 207.358 110.217  0.00  0.00     0.170 HD
ENDROOT
BRANCH  23  27
ATOM     27  C17  11 d         -13.856 207.085 118.323  0.00  0.00     0.033 C 
ATOM     28  C18  11 d         -14.547 207.036 119.688  0.00  0.00     0.008 C 
ENDBRANCH  23  27
TORSDOF 1
ENDMDL
