MODEL 1
REMARK VINA RESULT:      -9.7      0.000      0.000
REMARK  4 active torsions:
REMARK  status: ('A' for Active; 'I' for Inactive)
REMARK    1  A    between atoms: C6_9  and  N3_10 
REMARK    2  A    between atoms: N3_10  and  C7_11 
REMARK    3  A    between atoms: C7_11  and  C8_12 
REMARK    4  A    between atoms: C8_12  and  C9_13 
ROOT
ATOM      1  C1   11 d         -10.846 207.992 113.660  0.00  0.00     0.053 A 
ATOM      2  C2   11 d         -11.767 207.390 114.542  0.00  0.00    -0.023 A 
ATOM      3  C3   11 d         -11.490 207.810 115.842  0.00  0.00     0.016 A 
ATOM      4  S1   11 d         -10.308 208.733 115.842  0.00  0.00    -0.071 SA
ATOM      5  C4   11 d          -9.968 208.791 114.387  0.00  0.00     0.114 A 
ATOM      6  N1   11 d          -8.971 209.505 113.809  0.00  0.00    -0.234 NA
ATOM      7  C5   11 d          -8.820 209.439 112.455  0.00  0.00     0.236 A 
ATOM      8  N2   11 d          -9.652 208.650 111.708  0.00  0.00    -0.224 NA
ATOM      9  C6   11 d         -10.667 207.907 112.259  0.00  0.00     0.138 A 
ATOM     10  C15  11 d         -12.289 207.382 117.039  0.00  0.00     0.215 C 
ATOM     11  O1   11 d         -13.312 206.393 116.702  0.00  0.00    -0.376 OA
ATOM     12  C16  11 d         -14.011 206.611 115.434  0.00  0.00     0.058 C 
ATOM     13  C17  11 d         -13.007 206.589 114.246  0.00  0.00     0.078 C 
ATOM     14  C18  11 d         -14.823 207.926 115.471  0.00  0.00     0.046 C 
ATOM     15  C19  11 d         -14.998 205.441 115.286  0.00  0.00     0.046 C 
ENDROOT
BRANCH   9  16
ATOM     16  N3   11 d         -11.410 207.074 111.432  0.00  0.00    -0.374 N 
ATOM     17  H2   11 d         -11.903 206.313 111.831  0.00  0.00     0.161 HD
BRANCH  16  18
ATOM     18  C7   11 d         -11.502 207.282 110.033  0.00  0.00     0.126 C 
BRANCH  18  19
ATOM     19  C8   11 d         -12.949 207.501 109.556  0.00  0.00     0.058 C 
BRANCH  19  20
ATOM     20  C9   11 d         -14.039 206.864 110.400  0.00  0.00    -0.057 A 
ATOM     21  C10  11 d         -13.924 205.493 110.719  0.00  0.00     0.007 A 
ATOM     22  C11  11 d         -14.936 204.833 111.433  0.00  0.00     0.001 A 
ATOM     23  C12  11 d         -16.092 205.526 111.814  0.00  0.00     0.000 A 
ATOM     24  C13  11 d         -16.239 206.878 111.477  0.00  0.00     0.001 A 
ATOM     25  C14  11 d         -15.226 207.541 110.766  0.00  0.00     0.007 A 
ENDBRANCH  19  20
ENDBRANCH  18  19
ENDBRANCH  16  18
ENDBRANCH   9  16
TORSDOF 4
ENDMDL
MODEL 2
REMARK VINA RESULT:      -8.3      1.423      1.538
REMARK  4 active torsions:
REMARK  status: ('A' for Active; 'I' for Inactive)
REMARK    1  A    between atoms: C6_9  and  N3_10 
REMARK    2  A    between atoms: N3_10  and  C7_11 
REMARK    3  A    between atoms: C7_11  and  C8_12 
REMARK    4  A    between atoms: C8_12  and  C9_13 
ROOT
ATOM      1  C1   11 d         -10.619 207.688 114.713  0.00  0.00     0.053 A 
ATOM      2  C2   11 d         -11.387 207.033 115.698  0.00  0.00    -0.023 A 
ATOM      3  C3   11 d         -11.150 207.635 116.933  0.00  0.00     0.016 A 
ATOM      4  S1   11 d         -10.156 208.748 116.778  0.00  0.00    -0.071 SA
ATOM      5  C4   11 d          -9.879 208.705 115.309  0.00  0.00     0.114 A 
ATOM      6  N1   11 d          -9.046 209.516 114.611  0.00  0.00    -0.234 NA
ATOM      7  C5   11 d          -8.929 209.330 113.266  0.00  0.00     0.236 A 
ATOM      8  N2   11 d          -9.627 208.329 112.646  0.00  0.00    -0.224 NA
ATOM      9  C6   11 d         -10.472 207.483 113.321  0.00  0.00     0.138 A 
ATOM     10  C15  11 d         -11.820 207.206 118.206  0.00  0.00     0.215 C 
ATOM     11  O1   11 d         -12.657 206.020 118.024  0.00  0.00    -0.376 OA
ATOM     12  C16  11 d         -13.423 205.971 116.778  0.00  0.00     0.058 C 
ATOM     13  C17  11 d         -12.470 205.997 115.549  0.00  0.00     0.078 C 
ATOM     14  C18  11 d         -14.459 207.117 116.721  0.00  0.00     0.046 C 
ATOM     15  C19  11 d         -14.185 204.636 116.800  0.00  0.00     0.046 C 
ENDROOT
BRANCH   9  16
ATOM     16  N3   11 d         -11.077 206.446 112.622  0.00  0.00    -0.374 N 
ATOM     17  H2   11 d         -10.800 205.513 112.809  0.00  0.00     0.161 HD
BRANCH  16  18
ATOM     18  C7   11 d         -12.091 206.672 111.658  0.00  0.00     0.126 C 
BRANCH  18  19
ATOM     19  C8   11 d         -13.175 207.649 112.152  0.00  0.00     0.058 C 
BRANCH  19  20
ATOM     20  C9   11 d         -14.608 207.150 112.090  0.00  0.00    -0.057 A 
ATOM     21  C10  11 d         -15.118 206.441 113.200  0.00  0.00     0.007 A 
ATOM     22  C11  11 d         -16.410 205.893 113.171  0.00  0.00     0.001 A 
ATOM     23  C12  11 d         -17.201 206.021 112.023  0.00  0.00     0.000 A 
ATOM     24  C13  11 d         -16.699 206.693 110.900  0.00  0.00     0.001 A 
ATOM     25  C14  11 d         -15.409 207.245 110.928  0.00  0.00     0.007 A 
ENDBRANCH  19  20
ENDBRANCH  18  19
ENDBRANCH  16  18
ENDBRANCH   9  16
TORSDOF 4
ENDMDL
MODEL 3
REMARK VINA RESULT:      -8.2      2.824      5.457
REMARK  4 active torsions:
REMARK  status: ('A' for Active; 'I' for Inactive)
REMARK    1  A    between atoms: C6_9  and  N3_10 
REMARK    2  A    between atoms: N3_10  and  C7_11 
REMARK    3  A    between atoms: C7_11  and  C8_12 
REMARK    4  A    between atoms: C8_12  and  C9_13 
ROOT
ATOM      1  C1   11 d         -12.396 207.616 113.176  0.00  0.00     0.053 A 
ATOM      2  C2   11 d         -13.488 207.212 112.380  0.00  0.00    -0.023 A 
ATOM      3  C3   11 d         -13.042 206.985 111.079  0.00  0.00     0.016 A 
ATOM      4  S1   11 d         -11.572 207.266 110.986  0.00  0.00    -0.071 SA
ATOM      5  C4   11 d         -11.248 207.661 112.390  0.00  0.00     0.114 A 
ATOM      6  N1   11 d         -10.033 208.012 112.881  0.00  0.00    -0.234 NA
ATOM      7  C5   11 d          -9.930 208.334 114.202  0.00  0.00     0.236 A 
ATOM      8  N2   11 d         -11.040 208.320 115.002  0.00  0.00    -0.224 NA
ATOM      9  C6   11 d         -12.287 207.978 114.539  0.00  0.00     0.138 A 
ATOM     10  C15  11 d         -13.936 206.520 109.967  0.00  0.00     0.215 C 
ATOM     11  O1   11 d         -15.339 206.442 110.373  0.00  0.00    -0.376 OA
ATOM     12  C16  11 d         -15.579 205.933 111.724  0.00  0.00     0.058 C 
ATOM     13  C17  11 d         -14.892 206.845 112.781  0.00  0.00     0.078 C 
ATOM     14  C18  11 d         -15.118 204.463 111.852  0.00  0.00     0.046 C 
ATOM     15  C19  11 d         -17.103 205.978 111.930  0.00  0.00     0.046 C 
ENDROOT
BRANCH   9  16
ATOM     16  N3   11 d         -13.369 208.069 115.406  0.00  0.00    -0.374 N 
ATOM     17  H2   11 d         -14.118 208.676 115.180  0.00  0.00     0.161 HD
BRANCH  16  18
ATOM     18  C7   11 d         -13.449 207.309 116.600  0.00  0.00     0.126 C 
BRANCH  18  19
ATOM     19  C8   11 d         -13.369 205.792 116.348  0.00  0.00     0.058 C 
BRANCH  19  20
ATOM     20  C9   11 d         -14.121 204.907 117.326  0.00  0.00    -0.057 A 
ATOM     21  C10  11 d         -14.917 203.861 116.808  0.00  0.00     0.007 A 
ATOM     22  C11  11 d         -15.692 203.058 117.658  0.00  0.00     0.001 A 
ATOM     23  C12  11 d         -15.706 203.305 119.037  0.00  0.00     0.000 A 
ATOM     24  C13  11 d         -14.950 204.359 119.565  0.00  0.00     0.001 A 
ATOM     25  C14  11 d         -14.170 205.162 118.717  0.00  0.00     0.007 A 
ENDBRANCH  19  20
ENDBRANCH  18  19
ENDBRANCH  16  18
ENDBRANCH   9  16
TORSDOF 4
ENDMDL
MODEL 4
REMARK VINA RESULT:      -8.2      2.077      5.468
REMARK  4 active torsions:
REMARK  status: ('A' for Active; 'I' for Inactive)
REMARK    1  A    between atoms: C6_9  and  N3_10 
REMARK    2  A    between atoms: N3_10  and  C7_11 
REMARK    3  A    between atoms: C7_11  and  C8_12 
REMARK    4  A    between atoms: C8_12  and  C9_13 
ROOT
ATOM      1  C1   11 d         -13.266 207.112 112.644  0.00  0.00     0.053 A 
ATOM      2  C2   11 d         -12.969 207.278 114.012  0.00  0.00    -0.023 A 
ATOM      3  C3   11 d         -14.162 207.359 114.729  0.00  0.00     0.016 A 
ATOM      4  S1   11 d         -15.329 207.258 113.793  0.00  0.00    -0.071 SA
ATOM      5  C4   11 d         -14.647 207.096 112.472  0.00  0.00     0.114 A 
ATOM      6  N1   11 d         -15.237 206.944 111.261  0.00  0.00    -0.234 NA
ATOM      7  C5   11 d         -14.444 206.799 110.161  0.00  0.00     0.236 A 
ATOM      8  N2   11 d         -13.082 206.827 110.287  0.00  0.00    -0.224 NA
ATOM      9  C6   11 d         -12.449 206.988 111.495  0.00  0.00     0.138 A 
ATOM     10  C15  11 d         -14.223 207.517 116.220  0.00  0.00     0.215 C 
ATOM     11  O1   11 d         -12.899 207.688 116.818  0.00  0.00    -0.376 OA
ATOM     12  C16  11 d         -11.834 206.865 116.244  0.00  0.00     0.058 C 
ATOM     13  C17  11 d         -11.650 207.187 114.733  0.00  0.00     0.078 C 
ATOM     14  C18  11 d         -12.109 205.362 116.478  0.00  0.00     0.046 C 
ATOM     15  C19  11 d         -10.550 207.242 117.002  0.00  0.00     0.046 C 
ENDROOT
BRANCH   9  16
ATOM     16  N3   11 d         -11.063 207.085 111.516  0.00  0.00    -0.374 N 
ATOM     17  H2   11 d         -10.544 206.448 112.069  0.00  0.00     0.161 HD
BRANCH  16  18
ATOM     18  C7   11 d         -10.360 208.055 110.758  0.00  0.00     0.126 C 
BRANCH  18  19
ATOM     19  C8   11 d          -9.939 209.276 111.596  0.00  0.00     0.058 C 
BRANCH  19  20
ATOM     20  C9   11 d          -8.738 209.085 112.506  0.00  0.00    -0.057 A 
ATOM     21  C10  11 d          -8.820 209.569 113.831  0.00  0.00     0.007 A 
ATOM     22  C11  11 d          -7.716 209.488 114.694  0.00  0.00     0.001 A 
ATOM     23  C12  11 d          -6.507 208.949 114.239  0.00  0.00     0.000 A 
ATOM     24  C13  11 d          -6.398 208.495 112.918  0.00  0.00     0.001 A 
ATOM     25  C14  11 d          -7.501 208.571 112.053  0.00  0.00     0.007 A 
ENDBRANCH  19  20
ENDBRANCH  18  19
ENDBRANCH  16  18
ENDBRANCH   9  16
TORSDOF 4
ENDMDL
MODEL 5
REMARK VINA RESULT:      -8.0      2.979      6.191
REMARK  4 active torsions:
REMARK  status: ('A' for Active; 'I' for Inactive)
REMARK    1  A    between atoms: C6_9  and  N3_10 
REMARK    2  A    between atoms: N3_10  and  C7_11 
REMARK    3  A    between atoms: C7_11  and  C8_12 
REMARK    4  A    between atoms: C8_12  and  C9_13 
ROOT
ATOM      1  C1   11 d         -12.700 206.144 116.169  0.00  0.00     0.053 A 
ATOM      2  C2   11 d         -12.901 206.043 114.776  0.00  0.00    -0.023 A 
ATOM      3  C3   11 d         -14.162 205.499 114.539  0.00  0.00     0.016 A 
ATOM      4  S1   11 d         -14.845 205.201 115.840  0.00  0.00    -0.071 SA
ATOM      5  C4   11 d         -13.822 205.657 116.831  0.00  0.00     0.114 A 
ATOM      6  N1   11 d         -13.926 205.630 118.183  0.00  0.00    -0.234 NA
ATOM      7  C5   11 d         -12.886 206.102 118.928  0.00  0.00     0.236 A 
ATOM      8  N2   11 d         -11.757 206.572 118.313  0.00  0.00    -0.224 NA
ATOM      9  C6   11 d         -11.613 206.607 116.947  0.00  0.00     0.138 A 
ATOM     10  C15  11 d         -14.719 205.269 113.164  0.00  0.00     0.215 C 
ATOM     11  O1   11 d         -13.751 205.574 112.111  0.00  0.00    -0.376 OA
ATOM     12  C16  11 d         -12.916 206.754 112.340  0.00  0.00     0.058 C 
ATOM     13  C17  11 d         -12.076 206.585 113.639  0.00  0.00     0.078 C 
ATOM     14  C18  11 d         -13.775 208.039 112.379  0.00  0.00     0.046 C 
ATOM     15  C19  11 d         -11.969 206.846 111.132  0.00  0.00     0.046 C 
ENDROOT
BRANCH   9  16
ATOM     16  N3   11 d         -10.400 207.027 116.414  0.00  0.00    -0.374 N 
ATOM     17  H2   11 d          -9.838 206.376 115.924  0.00  0.00     0.161 HD
BRANCH  16  18
ATOM     18  C7   11 d          -9.944 208.364 116.533  0.00  0.00     0.126 C 
BRANCH  18  19
ATOM     19  C8   11 d         -10.090 209.162 115.225  0.00  0.00     0.058 C 
BRANCH  19  20
ATOM     20  C9   11 d          -8.967 209.010 114.213  0.00  0.00    -0.057 A 
ATOM     21  C10  11 d          -9.310 208.801 112.859  0.00  0.00     0.007 A 
ATOM     22  C11  11 d          -8.317 208.580 111.893  0.00  0.00     0.001 A 
ATOM     23  C12  11 d          -6.968 208.537 112.269  0.00  0.00     0.000 A 
ATOM     24  C13  11 d          -6.612 208.709 113.613  0.00  0.00     0.001 A 
ATOM     25  C14  11 d          -7.603 208.934 114.581  0.00  0.00     0.007 A 
ENDBRANCH  19  20
ENDBRANCH  18  19
ENDBRANCH  16  18
ENDBRANCH   9  16
TORSDOF 4
ENDMDL
MODEL 6
REMARK VINA RESULT:      -7.9      2.573      6.113
REMARK  4 active torsions:
REMARK  status: ('A' for Active; 'I' for Inactive)
REMARK    1  A    between atoms: C6_9  and  N3_10 
REMARK    2  A    between atoms: N3_10  and  C7_11 
REMARK    3  A    between atoms: C7_11  and  C8_12 
REMARK    4  A    between atoms: C8_12  and  C9_13 
ROOT
ATOM      1  C1   11 d         -12.065 207.256 114.925  0.00  0.00     0.053 A 
ATOM      2  C2   11 d         -13.022 206.636 114.095  0.00  0.00    -0.023 A 
ATOM      3  C3   11 d         -14.178 206.397 114.836  0.00  0.00     0.016 A 
ATOM      4  S1   11 d         -13.987 206.866 116.248  0.00  0.00    -0.071 SA
ATOM      5  C4   11 d         -12.594 207.408 116.202  0.00  0.00     0.114 A 
ATOM      6  N1   11 d         -11.907 207.981 117.221  0.00  0.00    -0.234 NA
ATOM      7  C5   11 d         -10.641 208.428 116.985  0.00  0.00     0.236 A 
ATOM      8  N2   11 d         -10.078 208.280 115.746  0.00  0.00    -0.224 NA
ATOM      9  C6   11 d         -10.741 207.698 114.693  0.00  0.00     0.138 A 
ATOM     10  C15  11 d         -15.414 205.767 114.263  0.00  0.00     0.215 C 
ATOM     11  O1   11 d         -15.229 205.333 112.879  0.00  0.00    -0.376 OA
ATOM     12  C16  11 d         -14.445 206.233 112.033  0.00  0.00     0.058 C 
ATOM     13  C17  11 d         -13.009 206.410 112.606  0.00  0.00     0.078 C 
ATOM     14  C18  11 d         -15.162 207.592 111.859  0.00  0.00     0.046 C 
ATOM     15  C19  11 d         -14.360 205.555 110.655  0.00  0.00     0.046 C 
ENDROOT
BRANCH   9  16
ATOM     16  N3   11 d         -10.062 207.518 113.495  0.00  0.00    -0.374 N 
ATOM     17  H2   11 d          -9.915 206.599 113.157  0.00  0.00     0.161 HD
BRANCH  16  18
ATOM     18  C7   11 d          -9.583 208.608 112.724  0.00  0.00     0.126 C 
BRANCH  18  19
ATOM     19  C8   11 d          -8.156 208.382 112.195  0.00  0.00     0.058 C 
BRANCH  19  20
ATOM     20  C9   11 d          -7.023 208.848 113.094  0.00  0.00    -0.057 A 
ATOM     21  C10  11 d          -7.320 209.769 114.122  0.00  0.00     0.007 A 
ATOM     22  C11  11 d          -6.302 210.291 114.935  0.00  0.00     0.001 A 
ATOM     23  C12  11 d          -4.969 209.921 114.716  0.00  0.00     0.000 A 
ATOM     24  C13  11 d          -4.652 209.034 113.679  0.00  0.00     0.001 A 
ATOM     25  C14  11 d          -5.669 208.508 112.866  0.00  0.00     0.007 A 
ENDBRANCH  19  20
ENDBRANCH  18  19
ENDBRANCH  16  18
ENDBRANCH   9  16
TORSDOF 4
ENDMDL
MODEL 7
REMARK VINA RESULT:      -7.9      2.680      4.556
REMARK  4 active torsions:
REMARK  status: ('A' for Active; 'I' for Inactive)
REMARK    1  A    between atoms: C6_9  and  N3_10 
REMARK    2  A    between atoms: N3_10  and  C7_11 
REMARK    3  A    between atoms: C7_11  and  C8_12 
REMARK    4  A    between atoms: C8_12  and  C9_13 
ROOT
ATOM      1  C1   11 d         -12.676 207.605 116.343  0.00  0.00     0.053 A 
ATOM      2  C2   11 d         -12.026 207.910 115.128  0.00  0.00    -0.023 A 
ATOM      3  C3   11 d         -10.719 208.308 115.402  0.00  0.00     0.016 A 
ATOM      4  S1   11 d         -10.476 208.286 116.882  0.00  0.00    -0.071 SA
ATOM      5  C4   11 d         -11.796 207.814 117.400  0.00  0.00     0.114 A 
ATOM      6  N1   11 d         -12.136 207.599 118.694  0.00  0.00    -0.234 NA
ATOM      7  C5   11 d         -13.395 207.156 118.975  0.00  0.00     0.236 A 
ATOM      8  N2   11 d         -14.295 206.955 117.963  0.00  0.00    -0.224 NA
ATOM      9  C6   11 d         -13.989 207.171 116.642  0.00  0.00     0.138 A 
ATOM     10  C15  11 d          -9.729 208.687 114.339  0.00  0.00     0.215 C 
ATOM     11  O1   11 d         -10.323 208.700 113.002  0.00  0.00    -0.376 OA
ATOM     12  C16  11 d         -11.274 207.624 112.722  0.00  0.00     0.058 C 
ATOM     13  C17  11 d         -12.475 207.686 113.709  0.00  0.00     0.078 C 
ATOM     14  C18  11 d         -10.576 206.245 112.758  0.00  0.00     0.046 C 
ATOM     15  C19  11 d         -11.781 207.868 111.291  0.00  0.00     0.046 C 
ENDROOT
BRANCH   9  16
ATOM     16  N3   11 d         -14.991 207.017 115.691  0.00  0.00    -0.374 N 
ATOM     17  H2   11 d         -15.537 207.803 115.435  0.00  0.00     0.161 HD
BRANCH  16  18
ATOM     18  C7   11 d         -15.251 205.775 115.060  0.00  0.00     0.126 C 
BRANCH  18  19
ATOM     19  C8   11 d         -16.205 205.905 113.859  0.00  0.00     0.058 C 
BRANCH  19  20
ATOM     20  C9   11 d         -15.555 206.044 112.493  0.00  0.00    -0.057 A 
ATOM     21  C10  11 d         -15.899 207.160 111.698  0.00  0.00     0.007 A 
ATOM     22  C11  11 d         -15.387 207.302 110.400  0.00  0.00     0.001 A 
ATOM     23  C12  11 d         -14.545 206.319 109.865  0.00  0.00     0.000 A 
ATOM     24  C13  11 d         -14.219 205.189 110.627  0.00  0.00     0.001 A 
ATOM     25  C14  11 d         -14.728 205.046 111.928  0.00  0.00     0.007 A 
ENDBRANCH  19  20
ENDBRANCH  18  19
ENDBRANCH  16  18
ENDBRANCH   9  16
TORSDOF 4
ENDMDL
MODEL 8
REMARK VINA RESULT:      -7.8      2.658      6.199
REMARK  4 active torsions:
REMARK  status: ('A' for Active; 'I' for Inactive)
REMARK    1  A    between atoms: C6_9  and  N3_10 
REMARK    2  A    between atoms: N3_10  and  C7_11 
REMARK    3  A    between atoms: C7_11  and  C8_12 
REMARK    4  A    between atoms: C8_12  and  C9_13 
ROOT
ATOM      1  C1   11 d         -12.127 207.585 112.855  0.00  0.00     0.053 A 
ATOM      2  C2   11 d         -13.292 207.183 112.170  0.00  0.00    -0.023 A 
ATOM      3  C3   11 d         -12.994 207.037 110.816  0.00  0.00     0.016 A 
ATOM      4  S1   11 d         -11.553 207.375 110.569  0.00  0.00    -0.071 SA
ATOM      5  C4   11 d         -11.080 207.710 111.947  0.00  0.00     0.114 A 
ATOM      6  N1   11 d          -9.828 208.079 112.313  0.00  0.00    -0.234 NA
ATOM      7  C5   11 d          -9.581 208.338 113.629  0.00  0.00     0.236 A 
ATOM      8  N2   11 d         -10.589 208.244 114.550  0.00  0.00    -0.224 NA
ATOM      9  C6   11 d         -11.871 207.882 114.215  0.00  0.00     0.138 A 
ATOM     10  C15  11 d         -13.997 206.597 109.790  0.00  0.00     0.215 C 
ATOM     11  O1   11 d         -15.340 206.449 110.349  0.00  0.00    -0.376 OA
ATOM     12  C16  11 d         -15.406 205.865 111.690  0.00  0.00     0.058 C 
ATOM     13  C17  11 d         -14.628 206.746 112.709  0.00  0.00     0.078 C 
ATOM     14  C18  11 d         -14.890 204.408 111.683  0.00  0.00     0.046 C 
ATOM     15  C19  11 d         -16.896 205.844 112.071  0.00  0.00     0.046 C 
ENDROOT
BRANCH   9  16
ATOM     16  N3   11 d         -12.847 207.890 115.204  0.00  0.00    -0.374 N 
ATOM     17  H2   11 d         -13.451 208.671 115.278  0.00  0.00     0.161 HD
BRANCH  16  18
ATOM     18  C7   11 d         -13.021 206.809 116.104  0.00  0.00     0.126 C 
BRANCH  18  19
ATOM     19  C8   11 d         -13.054 207.259 117.576  0.00  0.00     0.058 C 
BRANCH  19  20
ATOM     20  C9   11 d         -11.732 207.214 118.324  0.00  0.00    -0.057 A 
ATOM     21  C10  11 d         -10.836 208.293 118.164  0.00  0.00     0.007 A 
ATOM     22  C11  11 d          -9.571 208.273 118.770  0.00  0.00     0.001 A 
ATOM     23  C12  11 d          -9.171 207.161 119.522  0.00  0.00     0.000 A 
ATOM     24  C13  11 d         -10.033 206.066 119.663  0.00  0.00     0.001 A 
ATOM     25  C14  11 d         -11.301 206.086 119.061  0.00  0.00     0.007 A 
ENDBRANCH  19  20
ENDBRANCH  18  19
ENDBRANCH  16  18
ENDBRANCH   9  16
TORSDOF 4
ENDMDL
MODEL 9
REMARK VINA RESULT:      -7.8      2.542      6.193
REMARK  4 active torsions:
REMARK  status: ('A' for Active; 'I' for Inactive)
REMARK    1  A    between atoms: C6_9  and  N3_10 
REMARK    2  A    between atoms: N3_10  and  C7_11 
REMARK    3  A    between atoms: C7_11  and  C8_12 
REMARK    4  A    between atoms: C8_12  and  C9_13 
ROOT
ATOM      1  C1   11 d         -12.059 207.419 112.737  0.00  0.00     0.053 A 
ATOM      2  C2   11 d         -12.579 207.339 114.046  0.00  0.00    -0.023 A 
ATOM      3  C3   11 d         -13.869 206.815 113.990  0.00  0.00     0.016 A 
ATOM      4  S1   11 d         -14.249 206.540 112.566  0.00  0.00    -0.071 SA
ATOM      5  C4   11 d         -13.013 206.958 111.836  0.00  0.00     0.114 A 
ATOM      6  N1   11 d         -12.799 206.908 110.498  0.00  0.00    -0.234 NA
ATOM      7  C5   11 d         -11.595 207.327 110.012  0.00  0.00     0.236 A 
ATOM      8  N2   11 d         -10.638 207.804 110.866  0.00  0.00    -0.224 NA
ATOM      9  C6   11 d         -10.823 207.877 112.225  0.00  0.00     0.138 A 
ATOM     10  C15  11 d         -14.717 206.571 115.205  0.00  0.00     0.215 C 
ATOM     11  O1   11 d         -14.083 207.048 116.433  0.00  0.00    -0.376 OA
ATOM     12  C16  11 d         -12.640 206.822 116.530  0.00  0.00     0.058 C 
ATOM     13  C17  11 d         -11.896 207.547 115.372  0.00  0.00     0.078 C 
ATOM     14  C18  11 d         -12.318 205.310 116.557  0.00  0.00     0.046 C 
ATOM     15  C19  11 d         -12.204 207.431 117.873  0.00  0.00     0.046 C 
ENDROOT
BRANCH   9  16
ATOM     16  N3   11 d          -9.825 208.450 113.005  0.00  0.00    -0.374 N 
ATOM     17  H2   11 d          -9.752 208.193 113.959  0.00  0.00     0.161 HD
BRANCH  16  18
ATOM     18  C7   11 d          -8.894 209.380 112.479  0.00  0.00     0.126 C 
BRANCH  18  19
ATOM     19  C8   11 d          -7.474 208.798 112.356  0.00  0.00     0.058 C 
BRANCH  19  20
ATOM     20  C9   11 d          -6.494 209.174 113.454  0.00  0.00    -0.057 A 
ATOM     21  C10  11 d          -5.215 208.577 113.443  0.00  0.00     0.007 A 
ATOM     22  C11  11 d          -4.295 208.829 114.472  0.00  0.00     0.001 A 
ATOM     23  C12  11 d          -4.649 209.661 115.542  0.00  0.00     0.000 A 
ATOM     24  C13  11 d          -5.926 210.235 115.587  0.00  0.00     0.001 A 
ATOM     25  C14  11 d          -6.847 209.987 114.557  0.00  0.00     0.007 A 
ENDBRANCH  19  20
ENDBRANCH  18  19
ENDBRANCH  16  18
ENDBRANCH   9  16
TORSDOF 4
ENDMDL
MODEL 10
REMARK VINA RESULT:      -7.7      2.468      6.193
REMARK  4 active torsions:
REMARK  status: ('A' for Active; 'I' for Inactive)
REMARK    1  A    between atoms: C6_9  and  N3_10 
REMARK    2  A    between atoms: N3_10  and  C7_11 
REMARK    3  A    between atoms: C7_11  and  C8_12 
REMARK    4  A    between atoms: C8_12  and  C9_13 
ROOT
ATOM      1  C1   11 d         -12.306 206.979 114.448  0.00  0.00     0.053 A 
ATOM      2  C2   11 d         -12.116 207.365 115.791  0.00  0.00    -0.023 A 
ATOM      3  C3   11 d         -13.332 207.268 116.467  0.00  0.00     0.016 A 
ATOM      4  S1   11 d         -14.405 206.807 115.526  0.00  0.00    -0.071 SA
ATOM      5  C4   11 d         -13.642 206.643 114.251  0.00  0.00     0.114 A 
ATOM      6  N1   11 d         -14.128 206.226 113.056  0.00  0.00    -0.234 NA
ATOM      7  C5   11 d         -13.272 206.129 112.000  0.00  0.00     0.236 A 
ATOM      8  N2   11 d         -11.954 206.468 112.149  0.00  0.00    -0.224 NA
ATOM      9  C6   11 d         -11.428 206.902 113.341  0.00  0.00     0.138 A 
ATOM     10  C15  11 d         -13.495 207.582 117.925  0.00  0.00     0.215 C 
ATOM     11  O1   11 d         -12.269 208.106 118.525  0.00  0.00    -0.376 OA
ATOM     12  C16  11 d         -11.026 207.473 118.080  0.00  0.00     0.058 C 
ATOM     13  C17  11 d         -10.844 207.648 116.545  0.00  0.00     0.078 C 
ATOM     14  C18  11 d         -10.986 205.984 118.494  0.00  0.00     0.046 C 
ATOM     15  C19  11 d          -9.890 208.206 118.812  0.00  0.00     0.046 C 
ENDROOT
BRANCH   9  16
ATOM     16  N3   11 d         -10.097 207.300 113.378  0.00  0.00    -0.374 N 
ATOM     17  H2   11 d          -9.425 206.695 113.782  0.00  0.00     0.161 HD
BRANCH  16  18
ATOM     18  C7   11 d          -9.662 208.538 112.842  0.00  0.00     0.126 C 
BRANCH  18  19
ATOM     19  C8   11 d          -8.974 209.432 113.890  0.00  0.00     0.058 C 
BRANCH  19  20
ATOM     20  C9   11 d          -7.456 209.465 113.854  0.00  0.00    -0.057 A 
ATOM     21  C10  11 d          -6.789 208.627 112.934  0.00  0.00     0.007 A 
ATOM     22  C11  11 d          -5.388 208.560 112.906  0.00  0.00     0.001 A 
ATOM     23  C12  11 d          -4.632 209.309 113.816  0.00  0.00     0.000 A 
ATOM     24  C13  11 d          -5.276 210.121 114.759  0.00  0.00     0.001 A 
ATOM     25  C14  11 d          -6.678 210.192 114.786  0.00  0.00     0.007 A 
ENDBRANCH  19  20
ENDBRANCH  18  19
ENDBRANCH  16  18
ENDBRANCH   9  16
TORSDOF 4
ENDMDL
