MODEL 1
REMARK VINA RESULT:      -7.7      0.000      0.000
REMARK  5 active torsions:
REMARK  status: ('A' for Active; 'I' for Inactive)
REMARK    1  A    between atoms: C1_1  and  C2_2 
REMARK    2  A    between atoms: C1_1  and  C14_16 
REMARK    3  A    between atoms: C4_4  and  C12_12 
REMARK    4  A    between atoms: N1_14  and  O1_15 
REMARK    5  A    between atoms: N2_17  and  O2_18 
ROOT
ATOM      1  C2   11 d         -13.974 206.487 113.274  0.00  0.00     0.009 C 
ATOM      2  C3   11 d         -13.083 206.957 112.072  0.00  0.00     0.025 C 
ATOM      3  C4   11 d         -13.774 206.809 110.680  0.00  0.00    -0.039 C 
ATOM      4  C5   11 d         -15.082 207.649 110.705  0.00  0.00     0.014 C 
ATOM      5  C6   11 d         -15.999 207.173 111.852  0.00  0.00    -0.012 C 
ATOM      6  C7   11 d         -15.273 207.350 113.204  0.00  0.00     0.020 C 
ATOM      7  C8   11 d         -16.355 205.683 111.647  0.00  0.00     0.009 C 
ATOM      8  C9   11 d         -15.062 204.837 111.633  0.00  0.00    -0.012 C 
ATOM      9  C10  11 d         -14.328 204.993 112.984  0.00  0.00     0.020 C 
ATOM     10  C11  11 d         -14.144 205.311 110.487  0.00  0.00     0.014 C 
ENDROOT
BRANCH   1  11
ATOM     11  C1   11 d         -13.345 206.604 114.707  0.00  0.00     0.089 C 
ATOM     12  N1   11 d         -12.108 206.315 115.081  0.00  0.00    -0.139 NA
BRANCH  12  13
ATOM     13  O1   11 d         -11.269 205.874 114.165  0.00  0.00    -0.266 OA
ATOM     14  H20  11 d         -11.007 206.463 113.391  0.00  0.00     0.247 HD
ENDBRANCH  12  13
BRANCH  11  15
ATOM     15  C14  11 d         -14.133 207.086 115.890  0.00  0.00     0.176 C 
ATOM     16  N2   11 d         -13.867 206.753 117.125  0.00  0.00    -0.147 NA
BRANCH  16  17
ATOM     17  O2   11 d         -14.696 207.300 117.997  0.00  0.00    -0.266 OA
ATOM     18  H22  11 d         -15.591 206.875 118.181  0.00  0.00     0.247 HD
ENDBRANCH  16  17
ENDBRANCH  11  15
ENDBRANCH   1  11
BRANCH   3  19
ATOM     19  C12  11 d         -12.787 207.307 109.585  0.00  0.00     0.005 C 
ATOM     20  C13  11 d         -11.326 207.505 110.002  0.00  0.00     0.006 C 
ENDBRANCH   3  19
TORSDOF 5
ENDMDL
MODEL 2
REMARK VINA RESULT:      -7.4      3.237      4.498
REMARK  5 active torsions:
REMARK  status: ('A' for Active; 'I' for Inactive)
REMARK    1  A    between atoms: C1_1  and  C2_2 
REMARK    2  A    between atoms: C1_1  and  C14_16 
REMARK    3  A    between atoms: C4_4  and  C12_12 
REMARK    4  A    between atoms: N1_14  and  O1_15 
REMARK    5  A    between atoms: N2_17  and  O2_18 
ROOT
ATOM      1  C2   11 d         -13.969 206.850 112.453  0.00  0.00     0.009 C 
ATOM      2  C3   11 d         -12.470 207.160 112.113  0.00  0.00     0.025 C 
ATOM      3  C4   11 d         -11.563 207.342 113.371  0.00  0.00    -0.039 C 
ATOM      4  C5   11 d         -11.637 206.032 114.206  0.00  0.00     0.014 C 
ATOM      5  C6   11 d         -13.100 205.731 114.594  0.00  0.00    -0.012 C 
ATOM      6  C7   11 d         -13.951 205.550 113.317  0.00  0.00     0.020 C 
ATOM      7  C8   11 d         -13.667 206.900 115.431  0.00  0.00     0.009 C 
ATOM      8  C9   11 d         -13.610 208.206 114.605  0.00  0.00    -0.012 C 
ATOM      9  C10  11 d         -14.464 208.046 113.328  0.00  0.00     0.020 C 
ATOM     10  C11  11 d         -12.148 208.509 114.216  0.00  0.00     0.014 C 
ENDROOT
BRANCH   1  11
ATOM     11  C1   11 d         -14.944 206.656 111.238  0.00  0.00     0.089 C 
ATOM     12  N1   11 d         -14.694 206.855 109.953  0.00  0.00    -0.139 NA
BRANCH  12  13
ATOM     13  O1   11 d         -13.490 207.267 109.609  0.00  0.00    -0.266 OA
ATOM     14  H20  11 d         -12.901 206.687 109.034  0.00  0.00     0.247 HD
ENDBRANCH  12  13
BRANCH  11  15
ATOM     15  C14  11 d         -16.360 206.193 111.414  0.00  0.00     0.176 C 
ATOM     16  N2   11 d         -17.335 206.970 111.805  0.00  0.00    -0.147 NA
BRANCH  16  17
ATOM     17  O2   11 d         -18.495 206.342 111.888  0.00  0.00    -0.266 OA
ATOM     18  H22  11 d         -18.538 205.402 112.249  0.00  0.00     0.247 HD
ENDBRANCH  16  17
ENDBRANCH  11  15
ENDBRANCH   1  11
BRANCH   3  19
ATOM     19  C12  11 d         -10.113 207.642 112.893  0.00  0.00     0.005 C 
ATOM     20  C13  11 d          -9.958 208.441 111.594  0.00  0.00     0.006 C 
ENDBRANCH   3  19
TORSDOF 5
ENDMDL
MODEL 3
REMARK VINA RESULT:      -7.2      3.088      5.092
REMARK  5 active torsions:
REMARK  status: ('A' for Active; 'I' for Inactive)
REMARK    1  A    between atoms: C1_1  and  C2_2 
REMARK    2  A    between atoms: C1_1  and  C14_16 
REMARK    3  A    between atoms: C4_4  and  C12_12 
REMARK    4  A    between atoms: N1_14  and  O1_15 
REMARK    5  A    between atoms: N2_17  and  O2_18 
ROOT
ATOM      1  C2   11 d         -13.876 206.687 112.943  0.00  0.00     0.009 C 
ATOM      2  C3   11 d         -14.335 205.806 114.156  0.00  0.00     0.025 C 
ATOM      3  C4   11 d         -13.479 206.014 115.446  0.00  0.00    -0.039 C 
ATOM      4  C5   11 d         -13.571 207.516 115.841  0.00  0.00     0.014 C 
ATOM      5  C6   11 d         -13.079 208.404 114.679  0.00  0.00    -0.012 C 
ATOM      6  C7   11 d         -13.962 208.167 113.433  0.00  0.00     0.020 C 
ATOM      7  C8   11 d         -11.611 208.054 114.345  0.00  0.00     0.009 C 
ATOM      8  C9   11 d         -11.510 206.566 113.937  0.00  0.00    -0.012 C 
ATOM      9  C10  11 d         -12.380 206.314 112.686  0.00  0.00     0.020 C 
ATOM     10  C11  11 d         -12.002 205.677 115.098  0.00  0.00     0.014 C 
ENDROOT
BRANCH   1  11
ATOM     11  C1   11 d         -14.687 206.531 111.608  0.00  0.00     0.089 C 
ATOM     12  N1   11 d         -14.262 206.725 110.370  0.00  0.00    -0.139 NA
BRANCH  12  13
ATOM     13  O1   11 d         -13.010 207.095 110.191  0.00  0.00    -0.266 OA
ATOM     14  H20  11 d         -12.716 207.481 109.309  0.00  0.00     0.247 HD
ENDBRANCH  12  13
BRANCH  11  15
ATOM     15  C14  11 d         -16.129 206.117 111.592  0.00  0.00     0.176 C 
ATOM     16  N2   11 d         -17.107 206.873 112.017  0.00  0.00    -0.147 NA
BRANCH  16  17
ATOM     17  O2   11 d         -18.291 206.298 111.904  0.00  0.00    -0.266 OA
ATOM     18  H22  11 d         -18.360 205.304 111.754  0.00  0.00     0.247 HD
ENDBRANCH  16  17
ENDBRANCH  11  15
ENDBRANCH   1  11
BRANCH   3  19
ATOM     19  C12  11 d         -14.039 205.086 116.563  0.00  0.00     0.005 C 
ATOM     20  C13  11 d         -13.656 205.425 118.007  0.00  0.00     0.006 C 
ENDBRANCH   3  19
TORSDOF 5
ENDMDL
MODEL 4
REMARK VINA RESULT:      -7.2      2.166      3.726
REMARK  5 active torsions:
REMARK  status: ('A' for Active; 'I' for Inactive)
REMARK    1  A    between atoms: C1_1  and  C2_2 
REMARK    2  A    between atoms: C1_1  and  C14_16 
REMARK    3  A    between atoms: C4_4  and  C12_12 
REMARK    4  A    between atoms: N1_14  and  O1_15 
REMARK    5  A    between atoms: N2_17  and  O2_18 
ROOT
ATOM      1  C2   11 d         -13.281 205.954 115.085  0.00  0.00     0.009 C 
ATOM      2  C3   11 d         -14.153 205.433 113.891  0.00  0.00     0.025 C 
ATOM      3  C4   11 d         -13.952 206.235 112.566  0.00  0.00    -0.039 C 
ATOM      4  C5   11 d         -12.448 206.145 112.178  0.00  0.00     0.014 C 
ATOM      5  C6   11 d         -11.570 206.697 113.320  0.00  0.00    -0.012 C 
ATOM      6  C7   11 d         -11.799 205.865 114.602  0.00  0.00     0.020 C 
ATOM      7  C8   11 d         -11.938 208.174 113.590  0.00  0.00     0.009 C 
ATOM      8  C9   11 d         -13.428 208.274 113.990  0.00  0.00    -0.012 C 
ATOM      9  C10  11 d         -13.673 207.455 115.277  0.00  0.00     0.020 C 
ATOM     10  C11  11 d         -14.308 207.722 112.849  0.00  0.00     0.014 C 
ENDROOT
BRANCH   1  11
ATOM     11  C1   11 d         -13.430 205.199 116.453  0.00  0.00     0.089 C 
ATOM     12  N1   11 d         -14.512 204.619 116.949  0.00  0.00    -0.139 NA
BRANCH  12  13
ATOM     13  O1   11 d         -15.622 204.657 116.237  0.00  0.00    -0.266 OA
ATOM     14  H20  11 d         -16.286 205.401 116.374  0.00  0.00     0.247 HD
ENDBRANCH  12  13
BRANCH  11  15
ATOM     15  C14  11 d         -12.286 205.043 117.411  0.00  0.00     0.176 C 
ATOM     16  N2   11 d         -12.156 205.742 118.507  0.00  0.00    -0.147 NA
BRANCH  16  17
ATOM     17  O2   11 d         -11.070 205.431 119.192  0.00  0.00    -0.266 OA
ATOM     18  H22  11 d         -10.166 205.753 118.884  0.00  0.00     0.247 HD
ENDBRANCH  16  17
ENDBRANCH  11  15
ENDBRANCH   1  11
BRANCH   3  19
ATOM     19  C12  11 d         -14.870 205.617 111.472  0.00  0.00     0.005 C 
ATOM     20  C13  11 d         -16.189 206.339 111.181  0.00  0.00     0.006 C 
ENDBRANCH   3  19
TORSDOF 5
ENDMDL
MODEL 5
REMARK VINA RESULT:      -7.2      3.090      5.442
REMARK  5 active torsions:
REMARK  status: ('A' for Active; 'I' for Inactive)
REMARK    1  A    between atoms: C1_1  and  C2_2 
REMARK    2  A    between atoms: C1_1  and  C14_16 
REMARK    3  A    between atoms: C4_4  and  C12_12 
REMARK    4  A    between atoms: N1_14  and  O1_15 
REMARK    5  A    between atoms: N2_17  and  O2_18 
ROOT
ATOM      1  C2   11 d         -14.131 206.573 113.353  0.00  0.00     0.009 C 
ATOM      2  C3   11 d         -14.268 205.722 114.663  0.00  0.00     0.025 C 
ATOM      3  C4   11 d         -13.149 206.001 115.715  0.00  0.00    -0.039 C 
ATOM      4  C5   11 d         -13.204 207.512 116.080  0.00  0.00     0.014 C 
ATOM      5  C6   11 d         -13.023 208.373 114.811  0.00  0.00    -0.012 C 
ATOM      6  C7   11 d         -14.158 208.066 113.809  0.00  0.00     0.020 C 
ATOM      7  C8   11 d         -11.658 208.056 114.160  0.00  0.00     0.009 C 
ATOM      8  C9   11 d         -11.598 206.558 113.781  0.00  0.00    -0.012 C 
ATOM      9  C10  11 d         -12.721 206.236 112.770  0.00  0.00     0.020 C 
ATOM     10  C11  11 d         -11.778 205.696 115.048  0.00  0.00     0.014 C 
ENDROOT
BRANCH   1  11
ATOM     11  C1   11 d         -15.219 206.345 112.245  0.00  0.00     0.089 C 
ATOM     12  N1   11 d         -16.485 205.992 112.406  0.00  0.00    -0.139 NA
BRANCH  12  13
ATOM     13  O1   11 d         -16.926 205.799 113.634  0.00  0.00    -0.266 OA
ATOM     14  H20  11 d         -16.736 206.478 114.353  0.00  0.00     0.247 HD
ENDBRANCH  12  13
BRANCH  11  15
ATOM     15  C14  11 d         -14.921 206.514 110.784  0.00  0.00     0.176 C 
ATOM     16  N2   11 d         -15.057 207.643 110.140  0.00  0.00    -0.147 NA
BRANCH  16  17
ATOM     17  O2   11 d         -14.735 207.550 108.862  0.00  0.00    -0.266 OA
ATOM     18  H22  11 d         -14.096 208.212 108.450  0.00  0.00     0.247 HD
ENDBRANCH  16  17
ENDBRANCH  11  15
ENDBRANCH   1  11
BRANCH   3  19
ATOM     19  C12  11 d         -13.404 205.097 116.956  0.00  0.00     0.005 C 
ATOM     20  C13  11 d         -14.619 204.165 116.901  0.00  0.00     0.006 C 
ENDBRANCH   3  19
TORSDOF 5
ENDMDL
MODEL 6
REMARK VINA RESULT:      -7.1      3.067      4.897
REMARK  5 active torsions:
REMARK  status: ('A' for Active; 'I' for Inactive)
REMARK    1  A    between atoms: C1_1  and  C2_2 
REMARK    2  A    between atoms: C1_1  and  C14_16 
REMARK    3  A    between atoms: C4_4  and  C12_12 
REMARK    4  A    between atoms: N1_14  and  O1_15 
REMARK    5  A    between atoms: N2_17  and  O2_18 
ROOT
ATOM      1  C2   11 d         -14.437 206.691 113.283  0.00  0.00     0.009 C 
ATOM      2  C3   11 d         -12.988 207.025 112.785  0.00  0.00     0.025 C 
ATOM      3  C4   11 d         -11.982 207.337 113.937  0.00  0.00    -0.039 C 
ATOM      4  C5   11 d         -11.927 206.095 114.872  0.00  0.00     0.014 C 
ATOM      5  C6   11 d         -13.336 205.775 115.414  0.00  0.00    -0.012 C 
ATOM      6  C7   11 d         -14.288 205.464 114.237  0.00  0.00     0.020 C 
ATOM      7  C8   11 d         -13.874 206.987 116.209  0.00  0.00     0.009 C 
ATOM      8  C9   11 d         -13.945 208.224 115.285  0.00  0.00    -0.012 C 
ATOM      9  C10  11 d         -14.902 207.935 114.107  0.00  0.00     0.020 C 
ATOM     10  C11  11 d         -12.537 208.546 114.742  0.00  0.00     0.014 C 
ENDROOT
BRANCH   1  11
ATOM     11  C1   11 d         -15.507 206.369 112.181  0.00  0.00     0.089 C 
ATOM     12  N1   11 d         -16.752 205.952 112.351  0.00  0.00    -0.139 NA
BRANCH  12  13
ATOM     13  O1   11 d         -17.186 205.775 113.584  0.00  0.00    -0.266 OA
ATOM     14  H20  11 d         -17.893 206.383 113.964  0.00  0.00     0.247 HD
ENDBRANCH  12  13
BRANCH  11  15
ATOM     15  C14  11 d         -15.214 206.506 110.716  0.00  0.00     0.176 C 
ATOM     16  N2   11 d         -15.178 207.650 110.085  0.00  0.00    -0.147 NA
BRANCH  16  17
ATOM     17  O2   11 d         -14.900 207.523 108.800  0.00  0.00    -0.266 OA
ATOM     18  H22  11 d         -15.618 207.668 108.109  0.00  0.00     0.247 HD
ENDBRANCH  16  17
ENDBRANCH  11  15
ENDBRANCH   1  11
BRANCH   3  19
ATOM     19  C12  11 d         -10.593 207.649 113.307  0.00  0.00     0.005 C 
ATOM     20  C13  11 d         -10.571 208.025 111.822  0.00  0.00     0.006 C 
ENDBRANCH   3  19
TORSDOF 5
ENDMDL
MODEL 7
REMARK VINA RESULT:      -7.1      2.608      4.313
REMARK  5 active torsions:
REMARK  status: ('A' for Active; 'I' for Inactive)
REMARK    1  A    between atoms: C1_1  and  C2_2 
REMARK    2  A    between atoms: C1_1  and  C14_16 
REMARK    3  A    between atoms: C4_4  and  C12_12 
REMARK    4  A    between atoms: N1_14  and  O1_15 
REMARK    5  A    between atoms: N2_17  and  O2_18 
ROOT
ATOM      1  C2   11 d         -11.960 207.734 114.142  0.00  0.00     0.009 C 
ATOM      2  C3   11 d         -12.470 207.254 112.739  0.00  0.00     0.025 C 
ATOM      3  C4   11 d         -13.900 206.627 112.769  0.00  0.00    -0.039 C 
ATOM      4  C5   11 d         -14.878 207.699 113.329  0.00  0.00     0.014 C 
ATOM      5  C6   11 d         -14.423 208.153 114.732  0.00  0.00    -0.012 C 
ATOM      6  C7   11 d         -13.010 208.773 114.645  0.00  0.00     0.020 C 
ATOM      7  C8   11 d         -14.397 206.939 115.688  0.00  0.00     0.009 C 
ATOM      8  C9   11 d         -13.417 205.873 115.147  0.00  0.00    -0.012 C 
ATOM      9  C10  11 d         -11.996 206.473 115.064  0.00  0.00     0.020 C 
ATOM     10  C11  11 d         -13.870 205.417 113.744  0.00  0.00     0.014 C 
ENDROOT
BRANCH   1  11
ATOM     11  C1   11 d         -10.527 208.373 114.192  0.00  0.00     0.089 C 
ATOM     12  N1   11 d          -9.980 209.069 115.177  0.00  0.00    -0.139 NA
BRANCH  12  13
ATOM     13  O1   11 d         -10.692 209.270 116.268  0.00  0.00    -0.266 OA
ATOM     14  H20  11 d         -10.964 208.492 116.847  0.00  0.00     0.247 HD
ENDBRANCH  12  13
BRANCH  11  15
ATOM     15  C14  11 d          -9.559 208.259 113.052  0.00  0.00     0.176 C 
ATOM     16  N2   11 d          -8.809 209.244 112.633  0.00  0.00    -0.147 NA
BRANCH  16  17
ATOM     17  O2   11 d          -8.035 208.909 111.616  0.00  0.00    -0.266 OA
ATOM     18  H22  11 d          -8.430 208.463 110.804  0.00  0.00     0.247 HD
ENDBRANCH  16  17
ENDBRANCH  11  15
ENDBRANCH   1  11
BRANCH   3  19
ATOM     19  C12  11 d         -14.279 206.198 111.322  0.00  0.00     0.005 C 
ATOM     20  C13  11 d         -15.519 206.852 110.704  0.00  0.00     0.006 C 
ENDBRANCH   3  19
TORSDOF 5
ENDMDL
MODEL 8
REMARK VINA RESULT:      -7.0      2.151      3.898
REMARK  5 active torsions:
REMARK  status: ('A' for Active; 'I' for Inactive)
REMARK    1  A    between atoms: C1_1  and  C2_2 
REMARK    2  A    between atoms: C1_1  and  C14_16 
REMARK    3  A    between atoms: C4_4  and  C12_12 
REMARK    4  A    between atoms: N1_14  and  O1_15 
REMARK    5  A    between atoms: N2_17  and  O2_18 
ROOT
ATOM      1  C2   11 d         -13.753 205.961 115.383  0.00  0.00     0.009 C 
ATOM      2  C3   11 d         -14.461 205.450 114.080  0.00  0.00     0.025 C 
ATOM      3  C4   11 d         -14.072 206.250 112.797  0.00  0.00    -0.039 C 
ATOM      4  C5   11 d         -12.531 206.143 112.617  0.00  0.00     0.014 C 
ATOM      5  C6   11 d         -11.810 206.685 113.869  0.00  0.00    -0.012 C 
ATOM      6  C7   11 d         -12.220 205.855 115.106  0.00  0.00     0.020 C 
ATOM      7  C8   11 d         -12.195 208.166 114.089  0.00  0.00     0.009 C 
ATOM      8  C9   11 d         -13.725 208.282 114.283  0.00  0.00    -0.012 C 
ATOM      9  C10  11 d         -14.151 207.465 115.523  0.00  0.00     0.020 C 
ATOM     10  C11  11 d         -14.448 207.740 113.032  0.00  0.00     0.014 C 
ENDROOT
BRANCH   1  11
ATOM     11  C1   11 d         -14.096 205.206 116.716  0.00  0.00     0.089 C 
ATOM     12  N1   11 d         -13.708 205.508 117.946  0.00  0.00    -0.139 NA
BRANCH  12  13
ATOM     13  O1   11 d         -12.938 206.565 118.114  0.00  0.00    -0.266 OA
ATOM     14  H20  11 d         -12.181 206.540 118.778  0.00  0.00     0.247 HD
ENDBRANCH  12  13
BRANCH  11  15
ATOM     15  C14  11 d         -14.957 203.978 116.742  0.00  0.00     0.176 C 
ATOM     16  N2   11 d         -14.884 203.059 117.668  0.00  0.00    -0.147 NA
BRANCH  16  17
ATOM     17  O2   11 d         -15.741 202.070 117.483  0.00  0.00    -0.266 OA
ATOM     18  H22  11 d         -16.674 202.263 117.156  0.00  0.00     0.247 HD
ENDBRANCH  16  17
ENDBRANCH  11  15
ENDBRANCH   1  11
BRANCH   3  19
ATOM     19  C12  11 d         -14.840 205.642 111.587  0.00  0.00     0.005 C 
ATOM     20  C13  11 d         -16.283 206.110 111.372  0.00  0.00     0.006 C 
ENDBRANCH   3  19
TORSDOF 5
ENDMDL
MODEL 9
REMARK VINA RESULT:      -7.0      2.145      2.793
REMARK  5 active torsions:
REMARK  status: ('A' for Active; 'I' for Inactive)
REMARK    1  A    between atoms: C1_1  and  C2_2 
REMARK    2  A    between atoms: C1_1  and  C14_16 
REMARK    3  A    between atoms: C4_4  and  C12_12 
REMARK    4  A    between atoms: N1_14  and  O1_15 
REMARK    5  A    between atoms: N2_17  and  O2_18 
ROOT
ATOM      1  C2   11 d         -12.500 207.523 113.928  0.00  0.00     0.009 C 
ATOM      2  C3   11 d         -12.655 207.338 112.378  0.00  0.00     0.025 C 
ATOM      3  C4   11 d         -14.009 206.688 111.954  0.00  0.00    -0.039 C 
ATOM      4  C5   11 d         -15.159 207.596 112.478  0.00  0.00     0.014 C 
ATOM      5  C6   11 d         -15.056 207.754 114.010  0.00  0.00    -0.012 C 
ATOM      6  C7   11 d         -13.705 208.409 114.375  0.00  0.00     0.020 C 
ATOM      7  C8   11 d         -15.156 206.366 114.682  0.00  0.00     0.009 C 
ATOM      8  C9   11 d         -14.009 205.460 114.178  0.00  0.00    -0.012 C 
ATOM      9  C10  11 d         -12.650 206.095 114.545  0.00  0.00     0.020 C 
ATOM     10  C11  11 d         -14.111 205.300 112.647  0.00  0.00     0.014 C 
ENDROOT
BRANCH   1  11
ATOM     11  C1   11 d         -11.161 208.169 114.433  0.00  0.00     0.089 C 
ATOM     12  N1   11 d          -9.981 208.173 113.832  0.00  0.00    -0.139 NA
BRANCH  12  13
ATOM     13  O1   11 d          -9.875 207.572 112.663  0.00  0.00    -0.266 OA
ATOM     14  H20  11 d          -9.724 206.577 112.617  0.00  0.00     0.247 HD
ENDBRANCH  12  13
BRANCH  11  15
ATOM     15  C14  11 d         -11.068 208.900 115.740  0.00  0.00     0.176 C 
ATOM     16  N2   11 d         -10.446 208.434 116.790  0.00  0.00    -0.147 NA
BRANCH  16  17
ATOM     17  O2   11 d         -10.497 209.253 117.826  0.00  0.00    -0.266 OA
ATOM     18  H22  11 d         -10.574 208.885 118.760  0.00  0.00     0.247 HD
ENDBRANCH  16  17
ENDBRANCH  11  15
ENDBRANCH   1  11
BRANCH   3  19
ATOM     19  C12  11 d         -14.031 206.565 110.403  0.00  0.00     0.005 C 
ATOM     20  C13  11 d         -15.169 207.276 109.663  0.00  0.00     0.006 C 
ENDBRANCH   3  19
TORSDOF 5
ENDMDL
MODEL 10
REMARK VINA RESULT:      -6.9      2.803      3.527
REMARK  5 active torsions:
REMARK  status: ('A' for Active; 'I' for Inactive)
REMARK    1  A    between atoms: C1_1  and  C2_2 
REMARK    2  A    between atoms: C1_1  and  C14_16 
REMARK    3  A    between atoms: C4_4  and  C12_12 
REMARK    4  A    between atoms: N1_14  and  O1_15 
REMARK    5  A    between atoms: N2_17  and  O2_18 
ROOT
ATOM      1  C2   11 d         -12.635 207.106 116.444  0.00  0.00     0.009 C 
ATOM      2  C3   11 d         -11.718 207.456 115.221  0.00  0.00     0.025 C 
ATOM      3  C4   11 d         -12.449 207.377 113.843  0.00  0.00    -0.039 C 
ATOM      4  C5   11 d         -13.648 208.367 113.883  0.00  0.00     0.014 C 
ATOM      5  C6   11 d         -14.592 208.013 115.052  0.00  0.00    -0.012 C 
ATOM      6  C7   11 d         -13.825 208.116 116.389  0.00  0.00     0.020 C 
ATOM      7  C8   11 d         -15.125 206.574 114.870  0.00  0.00     0.009 C 
ATOM      8  C9   11 d         -13.941 205.580 114.843  0.00  0.00    -0.012 C 
ATOM      9  C10  11 d         -13.169 205.662 116.178  0.00  0.00     0.020 C 
ATOM     10  C11  11 d         -12.996 205.932 113.675  0.00  0.00     0.014 C 
ENDROOT
BRANCH   1  11
ATOM     11  C1   11 d         -11.969 207.161 117.865  0.00  0.00     0.089 C 
ATOM     12  N1   11 d         -11.182 208.103 118.360  0.00  0.00    -0.139 NA
BRANCH  12  13
ATOM     13  O1   11 d         -10.897 209.141 117.598  0.00  0.00    -0.266 OA
ATOM     14  H20  11 d         -10.480 209.004 116.691  0.00  0.00     0.247 HD
ENDBRANCH  12  13
BRANCH  11  15
ATOM     15  C14  11 d         -12.167 206.078 118.884  0.00  0.00     0.176 C 
ATOM     16  N2   11 d         -13.059 206.130 119.837  0.00  0.00    -0.147 NA
BRANCH  16  17
ATOM     17  O2   11 d         -13.049 205.061 120.613  0.00  0.00    -0.266 OA
ATOM     18  H22  11 d         -12.225 204.826 121.142  0.00  0.00     0.247 HD
ENDBRANCH  16  17
ENDBRANCH  11  15
ENDBRANCH   1  11
BRANCH   3  19
ATOM     19  C12  11 d         -11.431 207.746 112.725  0.00  0.00     0.005 C 
ATOM     20  C13  11 d         -11.603 207.051 111.371  0.00  0.00     0.006 C 
ENDBRANCH   3  19
TORSDOF 5
ENDMDL
