MODEL 1
REMARK VINA RESULT:      -8.6      0.000      0.000
REMARK  4 active torsions:
REMARK  status: ('A' for Active; 'I' for Inactive)
REMARK    1  A    between atoms: C1_1  and  C2_2 
REMARK       I    between atoms: C1_1  and  N2_12 
REMARK    2  A    between atoms: C5_5  and  N1_6 
REMARK    3  A    between atoms: N2_12  and  N3_13 
REMARK    4  A    between atoms: C8_14  and  C9_15 
ROOT
ATOM      1  C1   11 d          -9.734 208.334 112.163  0.00  0.00     0.271 C 
ATOM      2  O3   11 d         -10.052 208.708 110.977  0.00  0.00    -0.266 OA
ATOM      3  N2   11 d         -10.665 207.531 112.890  0.00  0.00    -0.243 N 
ATOM      4  H5   11 d         -10.493 207.169 113.884  0.00  0.00     0.192 HD
ENDROOT
BRANCH   1   5
ATOM      5  C2   11 d          -8.406 208.758 112.722  0.00  0.00     0.033 A 
ATOM      6  C3   11 d          -7.222 208.373 112.053  0.00  0.00     0.019 A 
ATOM      7  C4   11 d          -5.960 208.742 112.543  0.00  0.00     0.037 A 
ATOM      8  C5   11 d          -5.833 209.508 113.722  0.00  0.00     0.102 A 
ATOM      9  C6   11 d          -7.016 209.896 114.389  0.00  0.00     0.037 A 
ATOM     10  C7   11 d          -8.279 209.527 113.900  0.00  0.00     0.019 A 
BRANCH   8  11
ATOM     11  N1   11 d          -4.579 209.881 114.216  0.00  0.00    -0.116 N 
ATOM     12  O1   11 d          -3.790 210.333 113.519  0.00  0.00    -0.532 OA
ATOM     13  O2   11 d          -4.238 209.597 115.398  0.00  0.00    -0.532 OA
ENDBRANCH   8  11
ENDBRANCH   1   5
BRANCH   3  14
ATOM     14  N3   11 d         -11.872 207.188 112.274  0.00  0.00    -0.183 NA
ATOM     15  C8   11 d         -12.920 207.182 113.060  0.00  0.00     0.150 C 
BRANCH  15  16
ATOM     16  C9   11 d         -14.269 206.850 112.535  0.00  0.00    -0.017 A 
ATOM     17  C10  11 d         -15.283 206.331 113.370  0.00  0.00     0.013 A 
ATOM     18  C11  11 d         -16.546 206.021 112.845  0.00  0.00     0.001 A 
ATOM     19  C12  11 d         -16.811 206.223 111.484  0.00  0.00     0.000 A 
ATOM     20  C13  11 d         -15.811 206.737 110.645  0.00  0.00     0.001 A 
ATOM     21  C14  11 d         -14.546 207.048 111.167  0.00  0.00     0.013 A 
ENDBRANCH  15  16
ENDBRANCH   3  14
TORSDOF 4
ENDMDL
MODEL 2
REMARK VINA RESULT:      -7.8      3.038      9.168
REMARK  4 active torsions:
REMARK  status: ('A' for Active; 'I' for Inactive)
REMARK    1  A    between atoms: C1_1  and  C2_2 
REMARK       I    between atoms: C1_1  and  N2_12 
REMARK    2  A    between atoms: C5_5  and  N1_6 
REMARK    3  A    between atoms: N2_12  and  N3_13 
REMARK    4  A    between atoms: C8_14  and  C9_15 
ROOT
ATOM      1  C1   11 d         -11.450 207.544 111.771  0.00  0.00     0.271 C 
ATOM      2  O3   11 d         -10.814 207.529 110.656  0.00  0.00    -0.266 OA
ATOM      3  N2   11 d         -10.730 207.892 112.954  0.00  0.00    -0.243 N 
ATOM      4  H5   11 d         -11.171 207.932 113.930  0.00  0.00     0.192 HD
ENDROOT
BRANCH   1   5
ATOM      5  C2   11 d         -12.911 207.196 111.772  0.00  0.00     0.033 A 
ATOM      6  C3   11 d         -13.667 207.397 112.949  0.00  0.00     0.019 A 
ATOM      7  C4   11 d         -15.032 207.080 112.997  0.00  0.00     0.037 A 
ATOM      8  C5   11 d         -15.696 206.548 111.870  0.00  0.00     0.102 A 
ATOM      9  C6   11 d         -14.942 206.350 110.692  0.00  0.00     0.037 A 
ATOM     10  C7   11 d         -13.576 206.666 110.643  0.00  0.00     0.019 A 
BRANCH   8  11
ATOM     11  N1   11 d         -17.057 206.230 111.909  0.00  0.00    -0.116 N 
ATOM     12  O1   11 d         -17.836 206.953 111.479  0.00  0.00    -0.532 OA
ATOM     13  O2   11 d         -17.469 205.219 112.542  0.00  0.00    -0.532 OA
ENDBRANCH   8  11
ENDBRANCH   1   5
BRANCH   3  14
ATOM     14  N3   11 d          -9.373 208.204 112.841  0.00  0.00    -0.183 NA
ATOM     15  C8   11 d          -8.848 208.806 113.880  0.00  0.00     0.150 C 
BRANCH  15  16
ATOM     16  C9   11 d          -7.412 209.183 113.901  0.00  0.00    -0.017 A 
ATOM     17  C10  11 d          -6.488 208.635 112.984  0.00  0.00     0.013 A 
ATOM     18  C11  11 d          -5.135 209.006 113.031  0.00  0.00     0.001 A 
ATOM     19  C12  11 d          -4.691 209.925 113.991  0.00  0.00     0.000 A 
ATOM     20  C13  11 d          -5.601 210.475 114.907  0.00  0.00     0.001 A 
ATOM     21  C14  11 d          -6.953 210.106 114.863  0.00  0.00     0.013 A 
ENDBRANCH  15  16
ENDBRANCH   3  14
TORSDOF 4
ENDMDL
MODEL 3
REMARK VINA RESULT:      -7.4      1.808      2.364
REMARK  4 active torsions:
REMARK  status: ('A' for Active; 'I' for Inactive)
REMARK    1  A    between atoms: C1_1  and  C2_2 
REMARK       I    between atoms: C1_1  and  N2_12 
REMARK    2  A    between atoms: C5_5  and  N1_6 
REMARK    3  A    between atoms: N2_12  and  N3_13 
REMARK    4  A    between atoms: C8_14  and  C9_15 
ROOT
ATOM      1  C1   11 d         -10.338 208.630 114.841  0.00  0.00     0.271 C 
ATOM      2  O3   11 d         -11.242 208.770 115.741  0.00  0.00    -0.266 OA
ATOM      3  N2   11 d         -10.746 208.233 113.531  0.00  0.00    -0.243 N 
ATOM      4  H5   11 d         -10.069 208.089 112.713  0.00  0.00     0.192 HD
ENDROOT
BRANCH   1   5
ATOM      5  C2   11 d          -8.906 208.889 115.210  0.00  0.00     0.033 A 
ATOM      6  C3   11 d          -8.111 209.696 114.365  0.00  0.00     0.019 A 
ATOM      7  C4   11 d          -6.767 209.959 114.667  0.00  0.00     0.037 A 
ATOM      8  C5   11 d          -6.163 209.424 115.827  0.00  0.00     0.102 A 
ATOM      9  C6   11 d          -6.958 208.621 116.674  0.00  0.00     0.037 A 
ATOM     10  C7   11 d          -8.303 208.357 116.372  0.00  0.00     0.019 A 
BRANCH   8  11
ATOM     11  N1   11 d          -4.825 209.682 116.137  0.00  0.00    -0.116 N 
ATOM     12  O1   11 d          -4.006 209.530 115.350  0.00  0.00    -0.532 OA
ATOM     13  O2   11 d          -4.472 209.947 117.319  0.00  0.00    -0.532 OA
ENDBRANCH   8  11
ENDBRANCH   1   5
BRANCH   3  14
ATOM     14  N3   11 d         -12.107 208.023 113.292  0.00  0.00    -0.183 NA
ATOM     15  C8   11 d         -12.383 207.102 112.402  0.00  0.00     0.150 C 
BRANCH  15  16
ATOM     16  C9   11 d         -13.789 206.765 112.060  0.00  0.00    -0.017 A 
ATOM     17  C10  11 d         -14.294 206.932 110.752  0.00  0.00     0.013 A 
ATOM     18  C11  11 d         -15.629 206.611 110.460  0.00  0.00     0.001 A 
ATOM     19  C12  11 d         -16.471 206.122 111.467  0.00  0.00     0.000 A 
ATOM     20  C13  11 d         -15.979 205.952 112.770  0.00  0.00     0.001 A 
ATOM     21  C14  11 d         -14.646 206.273 113.066  0.00  0.00     0.013 A 
ENDBRANCH  15  16
ENDBRANCH   3  14
TORSDOF 4
ENDMDL
MODEL 4
REMARK VINA RESULT:      -7.3      6.184      9.203
REMARK  4 active torsions:
REMARK  status: ('A' for Active; 'I' for Inactive)
REMARK    1  A    between atoms: C1_1  and  C2_2 
REMARK       I    between atoms: C1_1  and  N2_12 
REMARK    2  A    between atoms: C5_5  and  N1_6 
REMARK    3  A    between atoms: N2_12  and  N3_13 
REMARK    4  A    between atoms: C8_14  and  C9_15 
ROOT
ATOM      1  C1   11 d         -13.673 205.845 116.314  0.00  0.00     0.271 C 
ATOM      2  O3   11 d         -14.430 206.239 115.355  0.00  0.00    -0.266 OA
ATOM      3  N2   11 d         -12.284 206.173 116.255  0.00  0.00    -0.243 N 
ATOM      4  H5   11 d         -11.573 205.891 117.005  0.00  0.00     0.192 HD
ENDROOT
BRANCH   1   5
ATOM      5  C2   11 d         -14.285 205.065 117.441  0.00  0.00     0.033 A 
ATOM      6  C3   11 d         -14.137 205.535 118.766  0.00  0.00     0.019 A 
ATOM      7  C4   11 d         -14.686 204.835 119.850  0.00  0.00     0.037 A 
ATOM      8  C5   11 d         -15.404 203.634 119.652  0.00  0.00     0.102 A 
ATOM      9  C6   11 d         -15.555 203.166 118.329  0.00  0.00     0.037 A 
ATOM     10  C7   11 d         -15.005 203.865 117.243  0.00  0.00     0.019 A 
BRANCH   8  11
ATOM     11  N1   11 d         -15.955 202.931 120.727  0.00  0.00    -0.116 N 
ATOM     12  O1   11 d         -15.557 203.087 121.790  0.00  0.00    -0.532 OA
ATOM     13  O2   11 d         -16.797 202.010 120.535  0.00  0.00    -0.532 OA
ENDBRANCH   8  11
ENDBRANCH   1   5
BRANCH   3  14
ATOM     14  N3   11 d         -11.818 206.910 115.162  0.00  0.00    -0.183 NA
ATOM     15  C8   11 d         -11.741 206.248 114.034  0.00  0.00     0.150 C 
BRANCH  15  16
ATOM     16  C9   11 d         -11.275 206.911 112.789  0.00  0.00    -0.017 A 
ATOM     17  C10  11 d         -10.241 207.873 112.804  0.00  0.00     0.013 A 
ATOM     18  C11  11 d          -9.826 208.487 111.612  0.00  0.00     0.001 A 
ATOM     19  C12  11 d         -10.436 208.150 110.397  0.00  0.00     0.000 A 
ATOM     20  C13  11 d         -11.465 207.196 110.372  0.00  0.00     0.001 A 
ATOM     21  C14  11 d         -11.883 206.580 111.561  0.00  0.00     0.013 A 
ENDBRANCH  15  16
ENDBRANCH   3  14
TORSDOF 4
ENDMDL
MODEL 5
REMARK VINA RESULT:      -7.0      6.889      9.156
REMARK  4 active torsions:
REMARK  status: ('A' for Active; 'I' for Inactive)
REMARK    1  A    between atoms: C1_1  and  C2_2 
REMARK       I    between atoms: C1_1  and  N2_12 
REMARK    2  A    between atoms: C5_5  and  N1_6 
REMARK    3  A    between atoms: N2_12  and  N3_13 
REMARK    4  A    between atoms: C8_14  and  C9_15 
ROOT
ATOM      1  C1   11 d         -13.932 205.382 117.216  0.00  0.00     0.271 C 
ATOM      2  O3   11 d         -12.736 205.790 116.986  0.00  0.00    -0.266 OA
ATOM      3  N2   11 d         -14.865 205.382 116.134  0.00  0.00    -0.243 N 
ATOM      4  H5   11 d         -15.883 205.062 116.226  0.00  0.00     0.192 HD
ENDROOT
BRANCH   1   5
ATOM      5  C2   11 d         -14.285 204.930 118.603  0.00  0.00     0.033 A 
ATOM      6  C3   11 d         -15.211 203.876 118.770  0.00  0.00     0.019 A 
ATOM      7  C4   11 d         -15.575 203.425 120.048  0.00  0.00     0.037 A 
ATOM      8  C5   11 d         -15.027 204.011 121.210  0.00  0.00     0.102 A 
ATOM      9  C6   11 d         -14.098 205.062 121.044  0.00  0.00     0.037 A 
ATOM     10  C7   11 d         -13.734 205.515 119.766  0.00  0.00     0.019 A 
BRANCH   8  11
ATOM     11  N1   11 d         -15.383 203.567 122.487  0.00  0.00    -0.116 N 
ATOM     12  O1   11 d         -16.284 204.021 123.030  0.00  0.00    -0.532 OA
ATOM     13  O2   11 d         -14.643 202.769 123.125  0.00  0.00    -0.532 OA
ENDBRANCH   8  11
ENDBRANCH   1   5
BRANCH   3  14
ATOM     14  N3   11 d         -14.431 205.819 114.880  0.00  0.00    -0.183 NA
ATOM     15  C8   11 d         -15.326 205.758 113.925  0.00  0.00     0.150 C 
BRANCH  15  16
ATOM     16  C9   11 d         -15.005 206.204 112.545  0.00  0.00    -0.017 A 
ATOM     17  C10  11 d         -13.672 206.306 112.091  0.00  0.00     0.013 A 
ATOM     18  C11  11 d         -13.398 206.736 110.783  0.00  0.00     0.001 A 
ATOM     19  C12  11 d         -14.449 207.068 109.918  0.00  0.00     0.000 A 
ATOM     20  C13  11 d         -15.777 206.970 110.359  0.00  0.00     0.001 A 
ATOM     21  C14  11 d         -16.054 206.542 111.666  0.00  0.00     0.013 A 
ENDBRANCH  15  16
ENDBRANCH   3  14
TORSDOF 4
ENDMDL
MODEL 6
REMARK VINA RESULT:      -6.9      3.272      9.077
REMARK  4 active torsions:
REMARK  status: ('A' for Active; 'I' for Inactive)
REMARK    1  A    between atoms: C1_1  and  C2_2 
REMARK       I    between atoms: C1_1  and  N2_12 
REMARK    2  A    between atoms: C5_5  and  N1_6 
REMARK    3  A    between atoms: N2_12  and  N3_13 
REMARK    4  A    between atoms: C8_14  and  C9_15 
ROOT
ATOM      1  C1   11 d         -10.552 208.129 114.396  0.00  0.00     0.271 C 
ATOM      2  O3   11 d         -10.740 208.084 115.665  0.00  0.00    -0.266 OA
ATOM      3  N2   11 d          -9.273 208.549 113.918  0.00  0.00    -0.243 N 
ATOM      4  H5   11 d          -9.019 208.620 112.879  0.00  0.00     0.192 HD
ENDROOT
BRANCH   1   5
ATOM      5  C2   11 d         -11.680 207.739 113.486  0.00  0.00     0.033 A 
ATOM      6  C3   11 d         -11.386 207.134 112.243  0.00  0.00     0.019 A 
ATOM      7  C4   11 d         -12.408 206.760 111.358  0.00  0.00     0.037 A 
ATOM      8  C5   11 d         -13.766 206.976 111.681  0.00  0.00     0.102 A 
ATOM      9  C6   11 d         -14.061 207.576 112.925  0.00  0.00     0.037 A 
ATOM     10  C7   11 d         -13.039 207.952 113.811  0.00  0.00     0.019 A 
BRANCH   8  11
ATOM     11  N1   11 d         -14.791 206.604 110.807  0.00  0.00    -0.116 N 
ATOM     12  O1   11 d         -15.338 205.606 110.942  0.00  0.00    -0.532 OA
ATOM     13  O2   11 d         -15.037 207.282 109.771  0.00  0.00    -0.532 OA
ENDBRANCH   8  11
ENDBRANCH   1   5
BRANCH   3  14
ATOM     14  N3   11 d          -8.289 208.886 114.852  0.00  0.00    -0.183 NA
ATOM     15  C8   11 d          -7.069 208.531 114.533  0.00  0.00     0.150 C 
BRANCH  15  16
ATOM     16  C9   11 d          -5.924 208.838 115.428  0.00  0.00    -0.017 A 
ATOM     17  C10  11 d          -4.653 208.254 115.232  0.00  0.00     0.013 A 
ATOM     18  C11  11 d          -3.591 208.559 116.097  0.00  0.00     0.001 A 
ATOM     19  C12  11 d          -3.786 209.446 117.164  0.00  0.00     0.000 A 
ATOM     20  C13  11 d          -5.044 210.031 117.367  0.00  0.00     0.001 A 
ATOM     21  C14  11 d          -6.108 209.728 116.505  0.00  0.00     0.013 A 
ENDBRANCH  15  16
ENDBRANCH   3  14
TORSDOF 4
ENDMDL
MODEL 7
REMARK VINA RESULT:      -6.8      3.520      9.222
REMARK  4 active torsions:
REMARK  status: ('A' for Active; 'I' for Inactive)
REMARK    1  A    between atoms: C1_1  and  C2_2 
REMARK       I    between atoms: C1_1  and  N2_12 
REMARK    2  A    between atoms: C5_5  and  N1_6 
REMARK    3  A    between atoms: N2_12  and  N3_13 
REMARK    4  A    between atoms: C8_14  and  C9_15 
ROOT
ATOM      1  C1   11 d          -8.873 209.024 114.217  0.00  0.00     0.271 C 
ATOM      2  O3   11 d          -8.564 210.225 113.884  0.00  0.00    -0.266 OA
ATOM      3  N2   11 d          -8.111 208.393 115.248  0.00  0.00    -0.243 N 
ATOM      4  H5   11 d          -8.290 207.396 115.596  0.00  0.00     0.192 HD
ENDROOT
BRANCH   1   5
ATOM      5  C2   11 d         -10.012 208.349 113.510  0.00  0.00     0.033 A 
ATOM      6  C3   11 d         -11.119 207.896 114.262  0.00  0.00     0.019 A 
ATOM      7  C4   11 d         -12.203 207.254 113.644  0.00  0.00     0.037 A 
ATOM      8  C5   11 d         -12.222 207.040 112.248  0.00  0.00     0.102 A 
ATOM      9  C6   11 d         -11.118 207.497 111.495  0.00  0.00     0.037 A 
ATOM     10  C7   11 d         -10.032 208.138 112.113  0.00  0.00     0.019 A 
BRANCH   8  11
ATOM     11  N1   11 d         -13.298 206.403 111.624  0.00  0.00    -0.116 N 
ATOM     12  O1   11 d         -13.740 206.824 110.654  0.00  0.00    -0.532 OA
ATOM     13  O2   11 d         -13.897 205.443 112.183  0.00  0.00    -0.532 OA
ENDBRANCH   8  11
ENDBRANCH   1   5
BRANCH   3  14
ATOM     14  N3   11 d          -7.073 209.114 115.845  0.00  0.00    -0.183 NA
ATOM     15  C8   11 d          -6.610 208.607 116.961  0.00  0.00     0.150 C 
BRANCH  15  16
ATOM     16  C9   11 d          -5.497 209.262 117.695  0.00  0.00    -0.017 A 
ATOM     17  C10  11 d          -5.724 210.345 118.573  0.00  0.00     0.013 A 
ATOM     18  C11  11 d          -4.652 210.948 119.248  0.00  0.00     0.001 A 
ATOM     19  C12  11 d          -3.346 210.479 119.055  0.00  0.00     0.000 A 
ATOM     20  C13  11 d          -3.110 209.404 118.186  0.00  0.00     0.001 A 
ATOM     21  C14  11 d          -4.179 208.800 117.508  0.00  0.00     0.013 A 
ENDBRANCH  15  16
ENDBRANCH   3  14
TORSDOF 4
ENDMDL
MODEL 8
REMARK VINA RESULT:      -6.7      3.662      4.364
REMARK  4 active torsions:
REMARK  status: ('A' for Active; 'I' for Inactive)
REMARK    1  A    between atoms: C1_1  and  C2_2 
REMARK       I    between atoms: C1_1  and  N2_12 
REMARK    2  A    between atoms: C5_5  and  N1_6 
REMARK    3  A    between atoms: N2_12  and  N3_13 
REMARK    4  A    between atoms: C8_14  and  C9_15 
ROOT
ATOM      1  C1   11 d         -11.085 208.277 115.569  0.00  0.00     0.271 C 
ATOM      2  O3   11 d         -10.679 208.316 114.352  0.00  0.00    -0.266 OA
ATOM      3  N2   11 d         -12.491 208.211 115.810  0.00  0.00    -0.243 N 
ATOM      4  H5   11 d         -12.928 208.175 116.788  0.00  0.00     0.192 HD
ENDROOT
BRANCH   1   5
ATOM      5  C2   11 d         -10.065 208.302 116.671  0.00  0.00     0.033 A 
ATOM      6  C3   11 d         -10.500 208.407 118.011  0.00  0.00     0.019 A 
ATOM      7  C4   11 d          -9.582 208.440 119.071  0.00  0.00     0.037 A 
ATOM      8  C5   11 d          -8.191 208.371 118.832  0.00  0.00     0.102 A 
ATOM      9  C6   11 d          -7.756 208.261 117.493  0.00  0.00     0.037 A 
ATOM     10  C7   11 d          -8.674 208.229 116.432  0.00  0.00     0.019 A 
BRANCH   8  11
ATOM     11  N1   11 d          -7.270 208.401 119.883  0.00  0.00    -0.116 N 
ATOM     12  O1   11 d          -6.419 209.169 119.888  0.00  0.00    -0.532 OA
ATOM     13  O2   11 d          -7.265 207.502 120.768  0.00  0.00    -0.532 OA
ENDBRANCH   8  11
ENDBRANCH   1   5
BRANCH   3  14
ATOM     14  N3   11 d         -13.355 208.188 114.711  0.00  0.00    -0.183 NA
ATOM     15  C8   11 d         -13.814 207.005 114.385  0.00  0.00     0.150 C 
BRANCH  15  16
ATOM     16  C9   11 d         -14.752 206.836 113.246  0.00  0.00    -0.017 A 
ATOM     17  C10  11 d         -14.473 207.372 111.970  0.00  0.00     0.013 A 
ATOM     18  C11  11 d         -15.381 207.201 110.914  0.00  0.00     0.001 A 
ATOM     19  C12  11 d         -16.575 206.497 111.119  0.00  0.00     0.000 A 
ATOM     20  C13  11 d         -16.862 205.960 112.383  0.00  0.00     0.001 A 
ATOM     21  C14  11 d         -15.957 206.130 113.442  0.00  0.00     0.013 A 
ENDBRANCH  15  16
ENDBRANCH   3  14
TORSDOF 4
ENDMDL
MODEL 9
REMARK VINA RESULT:      -6.7      3.126      9.077
REMARK  4 active torsions:
REMARK  status: ('A' for Active; 'I' for Inactive)
REMARK    1  A    between atoms: C1_1  and  C2_2 
REMARK       I    between atoms: C1_1  and  N2_12 
REMARK    2  A    between atoms: C5_5  and  N1_6 
REMARK    3  A    between atoms: N2_12  and  N3_13 
REMARK    4  A    between atoms: C8_14  and  C9_15 
ROOT
ATOM      1  C1   11 d         -11.572 207.281 113.852  0.00  0.00     0.271 C 
ATOM      2  O3   11 d         -10.663 206.476 113.439  0.00  0.00    -0.266 OA
ATOM      3  N2   11 d         -11.178 208.372 114.686  0.00  0.00    -0.243 N 
ATOM      4  H5   11 d         -11.861 209.097 115.082  0.00  0.00     0.192 HD
ENDROOT
BRANCH   1   5
ATOM      5  C2   11 d         -12.995 207.037 113.440  0.00  0.00     0.033 A 
ATOM      6  C3   11 d         -13.290 206.814 112.076  0.00  0.00     0.019 A 
ATOM      7  C4   11 d         -14.605 206.588 111.646  0.00  0.00     0.037 A 
ATOM      8  C5   11 d         -15.680 206.576 112.563  0.00  0.00     0.102 A 
ATOM      9  C6   11 d         -15.385 206.795 113.927  0.00  0.00     0.037 A 
ATOM     10  C7   11 d         -14.069 207.022 114.359  0.00  0.00     0.019 A 
BRANCH   8  11
ATOM     11  N1   11 d         -16.993 206.350 112.143  0.00  0.00    -0.116 N 
ATOM     12  O1   11 d         -17.444 205.297 112.183  0.00  0.00    -0.532 OA
ATOM     13  O2   11 d         -17.660 207.261 111.579  0.00  0.00    -0.532 OA
ENDBRANCH   8  11
ENDBRANCH   1   5
BRANCH   3  14
ATOM     14  N3   11 d          -9.825 208.512 115.006  0.00  0.00    -0.183 NA
ATOM     15  C8   11 d          -9.110 209.181 114.135  0.00  0.00     0.150 C 
BRANCH  15  16
ATOM     16  C9   11 d          -7.660 209.417 114.356  0.00  0.00    -0.017 A 
ATOM     17  C10  11 d          -7.138 209.672 115.643  0.00  0.00     0.013 A 
ATOM     18  C11  11 d          -5.764 209.897 115.820  0.00  0.00     0.001 A 
ATOM     19  C12  11 d          -4.899 209.870 114.718  0.00  0.00     0.000 A 
ATOM     20  C13  11 d          -5.408 209.618 113.435  0.00  0.00     0.001 A 
ATOM     21  C14  11 d          -6.781 209.393 113.254  0.00  0.00     0.013 A 
ENDBRANCH  15  16
ENDBRANCH   3  14
TORSDOF 4
ENDMDL
MODEL 10
REMARK VINA RESULT:      -6.7      4.876      7.157
REMARK  4 active torsions:
REMARK  status: ('A' for Active; 'I' for Inactive)
REMARK    1  A    between atoms: C1_1  and  C2_2 
REMARK       I    between atoms: C1_1  and  N2_12 
REMARK    2  A    between atoms: C5_5  and  N1_6 
REMARK    3  A    between atoms: N2_12  and  N3_13 
REMARK    4  A    between atoms: C8_14  and  C9_15 
ROOT
ATOM      1  C1   11 d         -13.017 206.651 115.466  0.00  0.00     0.271 C 
ATOM      2  O3   11 d         -13.056 207.625 116.301  0.00  0.00    -0.266 OA
ATOM      3  N2   11 d         -13.462 205.367 115.905  0.00  0.00    -0.243 N 
ATOM      4  H5   11 d         -13.467 204.493 115.284  0.00  0.00     0.192 HD
ENDROOT
BRANCH   1   5
ATOM      5  C2   11 d         -12.508 206.912 114.078  0.00  0.00     0.033 A 
ATOM      6  C3   11 d         -11.357 207.713 113.904  0.00  0.00     0.019 A 
ATOM      7  C4   11 d         -10.850 207.988 112.625  0.00  0.00     0.037 A 
ATOM      8  C5   11 d         -11.476 207.473 111.469  0.00  0.00     0.102 A 
ATOM      9  C6   11 d         -12.624 206.669 111.641  0.00  0.00     0.037 A 
ATOM     10  C7   11 d         -13.132 206.394 112.920  0.00  0.00     0.019 A 
BRANCH   8  11
ATOM     11  N1   11 d         -10.977 207.741 110.190  0.00  0.00    -0.116 N 
ATOM     12  O1   11 d          -9.952 208.236 110.058  0.00  0.00    -0.532 OA
ATOM     13  O2   11 d         -11.696 207.579 109.166  0.00  0.00    -0.532 OA
ENDBRANCH   8  11
ENDBRANCH   1   5
BRANCH   3  14
ATOM     14  N3   11 d         -13.922 205.234 117.218  0.00  0.00    -0.183 NA
ATOM     15  C8   11 d         -14.611 204.146 117.462  0.00  0.00     0.150 C 
BRANCH  15  16
ATOM     16  C9   11 d         -15.149 203.870 118.819  0.00  0.00    -0.017 A 
ATOM     17  C10  11 d         -14.693 204.575 119.955  0.00  0.00     0.013 A 
ATOM     18  C11  11 d         -15.215 204.288 121.225  0.00  0.00     0.001 A 
ATOM     19  C12  11 d         -16.195 203.298 121.376  0.00  0.00     0.000 A 
ATOM     20  C13  11 d         -16.654 202.592 120.254  0.00  0.00     0.001 A 
ATOM     21  C14  11 d         -16.134 202.875 118.983  0.00  0.00     0.013 A 
ENDBRANCH  15  16
ENDBRANCH   3  14
TORSDOF 4
ENDMDL
MODEL 11
REMARK VINA RESULT:      -6.7      4.236      8.852
REMARK  4 active torsions:
REMARK  status: ('A' for Active; 'I' for Inactive)
REMARK    1  A    between atoms: C1_1  and  C2_2 
REMARK       I    between atoms: C1_1  and  N2_12 
REMARK    2  A    between atoms: C5_5  and  N1_6 
REMARK    3  A    between atoms: N2_12  and  N3_13 
REMARK    4  A    between atoms: C8_14  and  C9_15 
ROOT
ATOM      1  C1   11 d         -11.017 208.316 114.914  0.00  0.00     0.271 C 
ATOM      2  O3   11 d          -9.902 208.840 114.556  0.00  0.00    -0.266 OA
ATOM      3  N2   11 d         -11.308 208.236 116.311  0.00  0.00    -0.243 N 
ATOM      4  H5   11 d         -12.210 207.816 116.709  0.00  0.00     0.192 HD
ENDROOT
BRANCH   1   5
ATOM      5  C2   11 d         -11.953 207.815 113.852  0.00  0.00     0.033 A 
ATOM      6  C3   11 d         -11.431 207.086 112.760  0.00  0.00     0.019 A 
ATOM      7  C4   11 d         -12.267 206.605 111.742  0.00  0.00     0.037 A 
ATOM      8  C5   11 d         -13.660 206.835 111.776  0.00  0.00     0.102 A 
ATOM      9  C6   11 d         -14.184 207.559 112.869  0.00  0.00     0.037 A 
ATOM     10  C7   11 d         -13.348 208.042 113.888  0.00  0.00     0.019 A 
BRANCH   8  11
ATOM     11  N1   11 d         -14.502 206.358 110.766  0.00  0.00    -0.116 N 
ATOM     12  O1   11 d         -14.575 205.234 110.553  0.00  0.00    -0.532 OA
ATOM     13  O2   11 d         -15.084 207.152 109.978  0.00  0.00    -0.532 OA
ENDBRANCH   8  11
ENDBRANCH   1   5
BRANCH   3  14
ATOM     14  N3   11 d         -10.369 208.738 117.217  0.00  0.00    -0.183 NA
ATOM     15  C8   11 d          -9.705 207.833 117.892  0.00  0.00     0.150 C 
BRANCH  15  16
ATOM     16  C9   11 d          -8.666 208.225 118.879  0.00  0.00    -0.017 A 
ATOM     17  C10  11 d          -7.335 207.764 118.776  0.00  0.00     0.013 A 
ATOM     18  C11  11 d          -6.376 208.147 119.727  0.00  0.00     0.001 A 
ATOM     19  C12  11 d          -6.734 208.989 120.788  0.00  0.00     0.000 A 
ATOM     20  C13  11 d          -8.054 209.452 120.899  0.00  0.00     0.001 A 
ATOM     21  C14  11 d          -9.015 209.071 119.951  0.00  0.00     0.013 A 
ENDBRANCH  15  16
ENDBRANCH   3  14
TORSDOF 4
ENDMDL
MODEL 12
REMARK VINA RESULT:      -6.6      4.880      5.618
REMARK  4 active torsions:
REMARK  status: ('A' for Active; 'I' for Inactive)
REMARK    1  A    between atoms: C1_1  and  C2_2 
REMARK       I    between atoms: C1_1  and  N2_12 
REMARK    2  A    between atoms: C5_5  and  N1_6 
REMARK    3  A    between atoms: N2_12  and  N3_13 
REMARK    4  A    between atoms: C8_14  and  C9_15 
ROOT
ATOM      1  C1   11 d         -12.149 207.513 116.739  0.00  0.00     0.271 C 
ATOM      2  O3   11 d         -13.396 207.554 117.039  0.00  0.00    -0.266 OA
ATOM      3  N2   11 d         -11.785 207.575 115.358  0.00  0.00    -0.243 N 
ATOM      4  H5   11 d         -10.774 207.547 115.007  0.00  0.00     0.192 HD
ENDROOT
BRANCH   1   5
ATOM      5  C2   11 d         -11.143 207.401 117.847  0.00  0.00     0.033 A 
ATOM      6  C3   11 d         -11.135 206.243 118.657  0.00  0.00     0.019 A 
ATOM      7  C4   11 d         -10.217 206.099 119.708  0.00  0.00     0.037 A 
ATOM      8  C5   11 d          -9.271 207.108 119.991  0.00  0.00     0.102 A 
ATOM      9  C6   11 d          -9.275 208.264 119.179  0.00  0.00     0.037 A 
ATOM     10  C7   11 d         -10.194 208.410 118.128  0.00  0.00     0.019 A 
BRANCH   8  11
ATOM     11  N1   11 d          -8.351 206.973 121.035  0.00  0.00    -0.116 N 
ATOM     12  O1   11 d          -8.701 206.659 122.081  0.00  0.00    -0.532 OA
ATOM     13  O2   11 d          -7.149 207.328 120.891  0.00  0.00    -0.532 OA
ENDBRANCH   8  11
ENDBRANCH   1   5
BRANCH   3  14
ATOM     14  N3   11 d         -12.802 207.684 114.405  0.00  0.00    -0.183 NA
ATOM     15  C8   11 d         -12.688 206.887 113.372  0.00  0.00     0.150 C 
BRANCH  15  16
ATOM     16  C9   11 d         -13.705 206.887 112.289  0.00  0.00    -0.017 A 
ATOM     17  C10  11 d         -13.337 206.894 110.926  0.00  0.00     0.013 A 
ATOM     18  C11  11 d         -14.320 206.900 109.925  0.00  0.00     0.001 A 
ATOM     19  C12  11 d         -15.678 206.900 110.273  0.00  0.00     0.000 A 
ATOM     20  C13  11 d         -16.054 206.894 111.624  0.00  0.00     0.001 A 
ATOM     21  C14  11 d         -15.074 206.889 112.627  0.00  0.00     0.013 A 
ENDBRANCH  15  16
ENDBRANCH   3  14
TORSDOF 4
ENDMDL
MODEL 13
REMARK VINA RESULT:      -6.6      4.721      8.800
REMARK  4 active torsions:
REMARK  status: ('A' for Active; 'I' for Inactive)
REMARK    1  A    between atoms: C1_1  and  C2_2 
REMARK       I    between atoms: C1_1  and  N2_12 
REMARK    2  A    between atoms: C5_5  and  N1_6 
REMARK    3  A    between atoms: N2_12  and  N3_13 
REMARK    4  A    between atoms: C8_14  and  C9_15 
ROOT
ATOM      1  C1   11 d         -10.685 208.188 115.107  0.00  0.00     0.271 C 
ATOM      2  O3   11 d         -10.231 209.389 115.095  0.00  0.00    -0.266 OA
ATOM      3  N2   11 d         -10.402 207.372 116.245  0.00  0.00    -0.243 N 
ATOM      4  H5   11 d         -10.735 206.359 116.350  0.00  0.00     0.192 HD
ENDROOT
BRANCH   1   5
ATOM      5  C2   11 d         -11.484 207.707 113.931  0.00  0.00     0.033 A 
ATOM      6  C3   11 d         -12.890 207.849 113.948  0.00  0.00     0.019 A 
ATOM      7  C4   11 d         -13.677 207.407 112.874  0.00  0.00     0.037 A 
ATOM      8  C5   11 d         -13.088 206.805 111.741  0.00  0.00     0.102 A 
ATOM      9  C6   11 d         -11.683 206.666 111.721  0.00  0.00     0.037 A 
ATOM     10  C7   11 d         -10.895 207.107 112.796  0.00  0.00     0.019 A 
BRANCH   8  11
ATOM     11  N1   11 d         -13.865 206.363 110.665  0.00  0.00    -0.116 N 
ATOM     12  O1   11 d         -14.094 207.063 109.787  0.00  0.00    -0.532 OA
ATOM     13  O2   11 d         -14.447 205.244 110.702  0.00  0.00    -0.532 OA
ENDBRANCH   8  11
ENDBRANCH   1   5
BRANCH   3  14
ATOM     14  N3   11 d          -9.652 207.921 117.290  0.00  0.00    -0.183 NA
ATOM     15  C8   11 d          -9.876 207.403 118.472  0.00  0.00     0.150 C 
BRANCH  15  16
ATOM     16  C9   11 d          -9.139 207.881 119.669  0.00  0.00    -0.017 A 
ATOM     17  C10  11 d          -8.946 209.258 119.919  0.00  0.00     0.013 A 
ATOM     18  C11  11 d          -8.240 209.681 121.056  0.00  0.00     0.001 A 
ATOM     19  C12  11 d          -7.719 208.737 121.952  0.00  0.00     0.000 A 
ATOM     20  C13  11 d          -7.905 207.368 121.713  0.00  0.00     0.001 A 
ATOM     21  C14  11 d          -8.610 206.941 120.577  0.00  0.00     0.013 A 
ENDBRANCH  15  16
ENDBRANCH   3  14
TORSDOF 4
ENDMDL
MODEL 14
REMARK VINA RESULT:      -6.4      5.086      9.519
REMARK  4 active torsions:
REMARK  status: ('A' for Active; 'I' for Inactive)
REMARK    1  A    between atoms: C1_1  and  C2_2 
REMARK       I    between atoms: C1_1  and  N2_12 
REMARK    2  A    between atoms: C5_5  and  N1_6 
REMARK    3  A    between atoms: N2_12  and  N3_13 
REMARK    4  A    between atoms: C8_14  and  C9_15 
ROOT
ATOM      1  C1   11 d         -12.850 206.837 116.091  0.00  0.00     0.271 C 
ATOM      2  O3   11 d         -12.629 205.782 116.787  0.00  0.00    -0.266 OA
ATOM      3  N2   11 d         -12.159 208.036 116.445  0.00  0.00    -0.243 N 
ATOM      4  H5   11 d         -12.277 208.967 115.927  0.00  0.00     0.192 HD
ENDROOT
BRANCH   1   5
ATOM      5  C2   11 d         -13.820 206.757 114.947  0.00  0.00     0.033 A 
ATOM      6  C3   11 d         -13.502 207.397 113.728  0.00  0.00     0.019 A 
ATOM      7  C4   11 d         -14.380 207.353 112.635  0.00  0.00     0.037 A 
ATOM      8  C5   11 d         -15.613 206.669 112.719  0.00  0.00     0.102 A 
ATOM      9  C6   11 d         -15.929 206.026 113.936  0.00  0.00     0.037 A 
ATOM     10  C7   11 d         -15.051 206.069 115.030  0.00  0.00     0.019 A 
BRANCH   8  11
ATOM     11  N1   11 d         -16.494 206.619 111.635  0.00  0.00    -0.116 N 
ATOM     12  O1   11 d         -16.108 206.761 110.565  0.00  0.00    -0.532 OA
ATOM     13  O2   11 d         -17.742 206.562 111.815  0.00  0.00    -0.532 OA
ENDBRANCH   8  11
ENDBRANCH   1   5
BRANCH   3  14
ATOM     14  N3   11 d         -11.274 208.001 117.526  0.00  0.00    -0.183 NA
ATOM     15  C8   11 d         -10.004 208.071 117.212  0.00  0.00     0.150 C 
BRANCH  15  16
ATOM     16  C9   11 d          -8.954 208.057 118.262  0.00  0.00    -0.017 A 
ATOM     17  C10  11 d          -7.745 207.346 118.093  0.00  0.00     0.013 A 
ATOM     18  C11  11 d          -6.774 207.347 119.105  0.00  0.00     0.001 A 
ATOM     19  C12  11 d          -6.997 208.055 120.294  0.00  0.00     0.000 A 
ATOM     20  C13  11 d          -8.193 208.765 120.472  0.00  0.00     0.001 A 
ATOM     21  C14  11 d          -9.168 208.765 119.462  0.00  0.00     0.013 A 
ENDBRANCH  15  16
ENDBRANCH   3  14
TORSDOF 4
ENDMDL
MODEL 15
REMARK VINA RESULT:      -6.3      8.288     10.067
REMARK  4 active torsions:
REMARK  status: ('A' for Active; 'I' for Inactive)
REMARK    1  A    between atoms: C1_1  and  C2_2 
REMARK       I    between atoms: C1_1  and  N2_12 
REMARK    2  A    between atoms: C5_5  and  N1_6 
REMARK    3  A    between atoms: N2_12  and  N3_13 
REMARK    4  A    between atoms: C8_14  and  C9_15 
ROOT
ATOM      1  C1   11 d         -14.658 206.562 120.059  0.00  0.00     0.271 C 
ATOM      2  O3   11 d         -14.080 206.152 121.130  0.00  0.00    -0.266 OA
ATOM      3  N2   11 d         -16.031 206.950 120.140  0.00  0.00    -0.243 N 
ATOM      4  H5   11 d         -16.600 207.304 119.304  0.00  0.00     0.192 HD
ENDROOT
BRANCH   1   5
ATOM      5  C2   11 d         -13.865 206.612 118.785  0.00  0.00     0.033 A 
ATOM      6  C3   11 d         -13.789 205.457 117.974  0.00  0.00     0.019 A 
ATOM      7  C4   11 d         -13.055 205.457 116.779  0.00  0.00     0.037 A 
ATOM      8  C5   11 d         -12.366 206.612 116.348  0.00  0.00     0.102 A 
ATOM      9  C6   11 d         -12.444 207.768 117.156  0.00  0.00     0.037 A 
ATOM     10  C7   11 d         -13.178 207.769 118.352  0.00  0.00     0.019 A 
BRANCH   8  11
ATOM     11  N1   11 d         -11.633 206.621 115.158  0.00  0.00    -0.116 N 
ATOM     12  O1   11 d         -11.530 205.667 114.530  0.00  0.00    -0.532 OA
ATOM     13  O2   11 d         -10.953 207.630 114.822  0.00  0.00    -0.532 OA
ENDBRANCH   8  11
ENDBRANCH   1   5
BRANCH   3  14
ATOM     14  N3   11 d         -16.674 206.869 121.378  0.00  0.00    -0.183 NA
ATOM     15  C8   11 d         -17.646 205.994 121.447  0.00  0.00     0.150 C 
BRANCH  15  16
ATOM     16  C9   11 d         -18.407 205.794 122.707  0.00  0.00    -0.017 A 
ATOM     17  C10  11 d         -18.197 206.614 123.838  0.00  0.00     0.013 A 
ATOM     18  C11  11 d         -18.927 206.397 125.017  0.00  0.00     0.001 A 
ATOM     19  C12  11 d         -19.870 205.363 125.080  0.00  0.00     0.000 A 
ATOM     20  C13  11 d         -20.087 204.544 123.963  0.00  0.00     0.001 A 
ATOM     21  C14  11 d         -19.358 204.756 122.783  0.00  0.00     0.013 A 
ENDBRANCH  15  16
ENDBRANCH   3  14
TORSDOF 4
ENDMDL
MODEL 16
REMARK VINA RESULT:      -6.3      6.503      9.459
REMARK  4 active torsions:
REMARK  status: ('A' for Active; 'I' for Inactive)
REMARK    1  A    between atoms: C1_1  and  C2_2 
REMARK       I    between atoms: C1_1  and  N2_12 
REMARK    2  A    between atoms: C5_5  and  N1_6 
REMARK    3  A    between atoms: N2_12  and  N3_13 
REMARK    4  A    between atoms: C8_14  and  C9_15 
ROOT
ATOM      1  C1   11 d         -13.486 205.500 116.699  0.00  0.00     0.271 C 
ATOM      2  O3   11 d         -12.364 204.918 116.923  0.00  0.00    -0.266 OA
ATOM      3  N2   11 d         -14.312 205.825 117.818  0.00  0.00    -0.243 N 
ATOM      4  H5   11 d         -15.265 206.309 117.734  0.00  0.00     0.192 HD
ENDROOT
BRANCH   1   5
ATOM      5  C2   11 d         -13.868 205.807 115.280  0.00  0.00     0.033 A 
ATOM      6  C3   11 d         -12.853 206.075 114.334  0.00  0.00     0.019 A 
ATOM      7  C4   11 d         -13.165 206.374 113.000  0.00  0.00     0.037 A 
ATOM      8  C5   11 d         -14.506 206.416 112.558  0.00  0.00     0.102 A 
ATOM      9  C6   11 d         -15.521 206.145 113.501  0.00  0.00     0.037 A 
ATOM     10  C7   11 d         -15.210 205.847 114.837  0.00  0.00     0.019 A 
BRANCH   8  11
ATOM     11  N1   11 d         -14.826 206.711 111.229  0.00  0.00    -0.116 N 
ATOM     12  O1   11 d         -15.302 207.717 110.955  0.00  0.00    -0.532 OA
ATOM     13  O2   11 d         -14.734 205.831 110.330  0.00  0.00    -0.532 OA
ENDBRANCH   8  11
ENDBRANCH   1   5
BRANCH   3  14
ATOM     14  N3   11 d         -13.859 205.499 119.099  0.00  0.00    -0.183 NA
ATOM     15  C8   11 d         -14.732 204.893 119.865  0.00  0.00     0.150 C 
BRANCH  15  16
ATOM     16  C9   11 d         -14.379 204.477 121.246  0.00  0.00    -0.017 A 
ATOM     17  C10  11 d         -15.187 203.580 121.979  0.00  0.00     0.013 A 
ATOM     18  C11  11 d         -14.832 203.210 123.285  0.00  0.00     0.001 A 
ATOM     19  C12  11 d         -13.670 203.728 123.872  0.00  0.00     0.000 A 
ATOM     20  C13  11 d         -12.860 204.619 123.152  0.00  0.00     0.001 A 
ATOM     21  C14  11 d         -13.213 204.993 121.847  0.00  0.00     0.013 A 
ENDBRANCH  15  16
ENDBRANCH   3  14
TORSDOF 4
ENDMDL
MODEL 17
REMARK VINA RESULT:      -6.3      4.817      5.970
REMARK  4 active torsions:
REMARK  status: ('A' for Active; 'I' for Inactive)
REMARK    1  A    between atoms: C1_1  and  C2_2 
REMARK       I    between atoms: C1_1  and  N2_12 
REMARK    2  A    between atoms: C5_5  and  N1_6 
REMARK    3  A    between atoms: N2_12  and  N3_13 
REMARK    4  A    between atoms: C8_14  and  C9_15 
ROOT
ATOM      1  C1   11 d          -9.303 208.090 117.446  0.00  0.00     0.271 C 
ATOM      2  O3   11 d         -10.004 207.017 117.530  0.00  0.00    -0.266 OA
ATOM      3  N2   11 d          -9.315 208.808 116.211  0.00  0.00    -0.243 N 
ATOM      4  H5   11 d          -8.764 209.711 116.041  0.00  0.00     0.192 HD
ENDROOT
BRANCH   1   5
ATOM      5  C2   11 d          -8.513 208.531 118.644  0.00  0.00     0.033 A 
ATOM      6  C3   11 d          -7.101 208.503 118.587  0.00  0.00     0.019 A 
ATOM      7  C4   11 d          -6.323 208.900 119.684  0.00  0.00     0.037 A 
ATOM      8  C5   11 d          -6.926 209.340 120.883  0.00  0.00     0.102 A 
ATOM      9  C6   11 d          -8.337 209.372 120.939  0.00  0.00     0.037 A 
ATOM     10  C7   11 d          -9.117 208.974 119.842  0.00  0.00     0.019 A 
BRANCH   8  11
ATOM     11  N1   11 d          -6.158 209.739 121.980  0.00  0.00    -0.116 N 
ATOM     12  O1   11 d          -6.282 210.788 122.427  0.00  0.00    -0.532 OA
ATOM     13  O2   11 d          -5.217 209.017 122.411  0.00  0.00    -0.532 OA
ENDBRANCH   8  11
ENDBRANCH   1   5
BRANCH   3  14
ATOM     14  N3   11 d         -10.090 208.312 115.159  0.00  0.00    -0.183 NA
ATOM     15  C8   11 d          -9.619 208.545 113.959  0.00  0.00     0.150 C 
BRANCH  15  16
ATOM     16  C9   11 d         -10.334 208.063 112.749  0.00  0.00    -0.017 A 
ATOM     17  C10  11 d         -11.423 207.167 112.840  0.00  0.00     0.013 A 
ATOM     18  C11  11 d         -12.076 206.724 111.680  0.00  0.00     0.001 A 
ATOM     19  C12  11 d         -11.651 207.168 110.420  0.00  0.00     0.000 A 
ATOM     20  C13  11 d         -10.571 208.057 110.319  0.00  0.00     0.001 A 
ATOM     21  C14  11 d          -9.915 208.502 111.477  0.00  0.00     0.013 A 
ENDBRANCH  15  16
ENDBRANCH   3  14
TORSDOF 4
ENDMDL
MODEL 18
REMARK VINA RESULT:      -6.2      4.174      4.969
REMARK  4 active torsions:
REMARK  status: ('A' for Active; 'I' for Inactive)
REMARK    1  A    between atoms: C1_1  and  C2_2 
REMARK       I    between atoms: C1_1  and  N2_12 
REMARK    2  A    between atoms: C5_5  and  N1_6 
REMARK    3  A    between atoms: N2_12  and  N3_13 
REMARK    4  A    between atoms: C8_14  and  C9_15 
ROOT
ATOM      1  C1   11 d         -10.350 207.350 117.074  0.00  0.00     0.271 C 
ATOM      2  O3   11 d         -11.249 206.620 117.628  0.00  0.00    -0.266 OA
ATOM      3  N2   11 d         -10.431 207.565 115.664  0.00  0.00    -0.243 N 
ATOM      4  H5   11 d          -9.730 208.156 115.110  0.00  0.00     0.192 HD
ENDROOT
BRANCH   1   5
ATOM      5  C2   11 d          -9.266 207.935 117.932  0.00  0.00     0.033 A 
ATOM      6  C3   11 d          -9.604 208.493 119.186  0.00  0.00     0.019 A 
ATOM      7  C4   11 d          -8.625 209.057 120.017  0.00  0.00     0.037 A 
ATOM      8  C5   11 d          -7.268 209.086 119.626  0.00  0.00     0.102 A 
ATOM      9  C6   11 d          -6.929 208.526 118.375  0.00  0.00     0.037 A 
ATOM     10  C7   11 d          -7.908 207.962 117.542  0.00  0.00     0.019 A 
BRANCH   8  11
ATOM     11  N1   11 d          -6.286 209.645 120.449  0.00  0.00    -0.116 N 
ATOM     12  O1   11 d          -6.574 210.365 121.293  0.00  0.00    -0.532 OA
ATOM     13  O2   11 d          -5.060 209.486 120.194  0.00  0.00    -0.532 OA
ENDBRANCH   8  11
ENDBRANCH   1   5
BRANCH   3  14
ATOM     14  N3   11 d         -11.485 206.977 114.959  0.00  0.00    -0.183 NA
ATOM     15  C8   11 d         -11.505 207.224 113.673  0.00  0.00     0.150 C 
BRANCH  15  16
ATOM     16  C9   11 d         -12.562 206.651 112.800  0.00  0.00    -0.017 A 
ATOM     17  C10  11 d         -12.555 206.848 111.402  0.00  0.00     0.013 A 
ATOM     18  C11  11 d         -13.570 206.299 110.603  0.00  0.00     0.001 A 
ATOM     19  C12  11 d         -14.600 205.551 111.189  0.00  0.00     0.000 A 
ATOM     20  C13  11 d         -14.616 205.350 112.577  0.00  0.00     0.001 A 
ATOM     21  C14  11 d         -13.604 205.898 113.379  0.00  0.00     0.013 A 
ENDBRANCH  15  16
ENDBRANCH   3  14
TORSDOF 4
ENDMDL
MODEL 19
REMARK VINA RESULT:      -6.1      6.835      8.983
REMARK  4 active torsions:
REMARK  status: ('A' for Active; 'I' for Inactive)
REMARK    1  A    between atoms: C1_1  and  C2_2 
REMARK       I    between atoms: C1_1  and  N2_12 
REMARK    2  A    between atoms: C5_5  and  N1_6 
REMARK    3  A    between atoms: N2_12  and  N3_13 
REMARK    4  A    between atoms: C8_14  and  C9_15 
ROOT
ATOM      1  C1   11 d         -12.474 206.387 117.760  0.00  0.00     0.271 C 
ATOM      2  O3   11 d         -12.052 205.312 117.200  0.00  0.00    -0.266 OA
ATOM      3  N2   11 d         -12.206 207.633 117.115  0.00  0.00    -0.243 N 
ATOM      4  H5   11 d         -12.516 208.584 117.501  0.00  0.00     0.192 HD
ENDROOT
BRANCH   1   5
ATOM      5  C2   11 d         -13.223 206.280 119.057  0.00  0.00     0.033 A 
ATOM      6  C3   11 d         -14.355 207.098 119.269  0.00  0.00     0.019 A 
ATOM      7  C4   11 d         -15.081 207.036 120.468  0.00  0.00     0.037 A 
ATOM      8  C5   11 d         -14.702 206.153 121.503  0.00  0.00     0.102 A 
ATOM      9  C6   11 d         -13.573 205.332 121.290  0.00  0.00     0.037 A 
ATOM     10  C7   11 d         -12.845 205.394 120.091  0.00  0.00     0.019 A 
BRANCH   8  11
ATOM     11  N1   11 d         -15.420 206.083 122.700  0.00  0.00    -0.116 N 
ATOM     12  O1   11 d         -16.526 206.382 122.734  0.00  0.00    -0.532 OA
ATOM     13  O2   11 d         -14.838 205.831 123.792  0.00  0.00    -0.532 OA
ENDBRANCH   8  11
ENDBRANCH   1   5
BRANCH   3  14
ATOM     14  N3   11 d         -11.505 207.621 115.906  0.00  0.00    -0.183 NA
ATOM     15  C8   11 d         -12.242 207.738 114.829  0.00  0.00     0.150 C 
BRANCH  15  16
ATOM     16  C9   11 d         -11.626 207.754 113.478  0.00  0.00    -0.017 A 
ATOM     17  C10  11 d         -10.403 208.414 113.229  0.00  0.00     0.013 A 
ATOM     18  C11  11 d          -9.847 208.417 111.940  0.00  0.00     0.001 A 
ATOM     19  C12  11 d         -10.505 207.764 110.889  0.00  0.00     0.000 A 
ATOM     20  C13  11 d         -11.720 207.105 111.126  0.00  0.00     0.001 A 
ATOM     21  C14  11 d         -12.279 207.100 112.413  0.00  0.00     0.013 A 
ENDBRANCH  15  16
ENDBRANCH   3  14
TORSDOF 4
ENDMDL
MODEL 20
REMARK VINA RESULT:      -5.9      8.152      9.964
REMARK  4 active torsions:
REMARK  status: ('A' for Active; 'I' for Inactive)
REMARK    1  A    between atoms: C1_1  and  C2_2 
REMARK       I    between atoms: C1_1  and  N2_12 
REMARK    2  A    between atoms: C5_5  and  N1_6 
REMARK    3  A    between atoms: N2_12  and  N3_13 
REMARK    4  A    between atoms: C8_14  and  C9_15 
ROOT
ATOM      1  C1   11 d         -15.057 204.774 119.442  0.00  0.00     0.271 C 
ATOM      2  O3   11 d         -15.073 203.493 119.363  0.00  0.00    -0.266 OA
ATOM      3  N2   11 d         -15.952 205.404 120.360  0.00  0.00    -0.243 N 
ATOM      4  H5   11 d         -16.015 206.465 120.498  0.00  0.00     0.192 HD
ENDROOT
BRANCH   1   5
ATOM      5  C2   11 d         -14.105 205.539 118.569  0.00  0.00     0.033 A 
ATOM      6  C3   11 d         -13.786 206.875 118.902  0.00  0.00     0.019 A 
ATOM      7  C4   11 d         -12.906 207.629 118.112  0.00  0.00     0.037 A 
ATOM      8  C5   11 d         -12.310 207.077 116.956  0.00  0.00     0.102 A 
ATOM      9  C6   11 d         -12.625 205.741 116.626  0.00  0.00     0.037 A 
ATOM     10  C7   11 d         -13.506 204.985 117.415  0.00  0.00     0.019 A 
BRANCH   8  11
ATOM     11  N1   11 d         -11.431 207.821 116.164  0.00  0.00    -0.116 N 
ATOM     12  O1   11 d         -10.461 208.240 116.608  0.00  0.00    -0.532 OA
ATOM     13  O2   11 d         -11.749 208.170 114.994  0.00  0.00    -0.532 OA
ENDBRANCH   8  11
ENDBRANCH   1   5
BRANCH   3  14
ATOM     14  N3   11 d         -16.795 204.597 121.129  0.00  0.00    -0.183 NA
ATOM     15  C8   11 d         -18.056 204.953 121.138  0.00  0.00     0.150 C 
BRANCH  15  16
ATOM     16  C9   11 d         -19.065 204.176 121.903  0.00  0.00    -0.017 A 
ATOM     17  C10  11 d         -19.747 203.080 121.330  0.00  0.00     0.013 A 
ATOM     18  C11  11 d         -20.700 202.369 122.076  0.00  0.00     0.001 A 
ATOM     19  C12  11 d         -20.981 202.742 123.397  0.00  0.00     0.000 A 
ATOM     20  C13  11 d         -20.308 203.829 123.975  0.00  0.00     0.001 A 
ATOM     21  C14  11 d         -19.356 204.543 123.232  0.00  0.00     0.013 A 
ENDBRANCH  15  16
ENDBRANCH   3  14
TORSDOF 4
ENDMDL
