MODEL 1
REMARK VINA RESULT:     -11.6      0.000      0.000
REMARK  0 active torsions:
REMARK  status: ('A' for Active; 'I' for Inactive)
ROOT
ATOM      1  C1   11 d         -14.516 204.608 119.053  0.00  0.00     0.067 A 
ATOM      2  C2   11 d         -13.750 205.292 118.155  0.00  0.00     0.093 A 
ATOM      3  C3   11 d         -12.918 206.409 118.330  0.00  0.00     0.269 A 
ATOM      4  N1   11 d         -12.303 206.794 117.170  0.00  0.00    -0.278 N 
ATOM      5  C4   11 d         -12.747 206.018 116.158  0.00  0.00     0.178 A 
ATOM      6  N2   11 d         -12.420 206.146 114.904  0.00  0.00    -0.223 NA
ATOM      7  C5   11 d         -11.544 207.252 114.550  0.00  0.00     0.075 C 
ATOM      8  C6   11 d         -11.205 207.443 113.105  0.00  0.00    -0.001 A 
ATOM      9  C7   11 d         -10.113 208.271 112.741  0.00  0.00    -0.045 A 
ATOM     10  C8   11 d          -9.845 208.514 111.380  0.00  0.00     0.008 A 
ATOM     11  C9   11 d         -10.603 207.884 110.384  0.00  0.00     0.001 A 
ATOM     12  C10  11 d         -11.649 207.024 110.739  0.00  0.00     0.001 A 
ATOM     13  C11  11 d         -11.952 206.805 112.092  0.00  0.00     0.014 A 
ATOM     14  C12  11 d          -9.326 208.993 113.807  0.00  0.00     0.044 C 
ATOM     15  C13  11 d         -10.175 209.282 115.051  0.00  0.00     0.044 C 
ATOM     16  C14  11 d         -11.041 208.108 115.492  0.00  0.00    -0.022 C 
ATOM     17  C15  11 d         -11.325 207.891 116.985  0.00  0.00     0.166 C 
ATOM     18  C16  11 d         -10.049 207.619 117.787  0.00  0.00     0.010 A 
ATOM     19  S1   11 d          -9.973 207.489 119.284  0.00  0.00    -0.104 SA
ATOM     20  C17  11 d          -8.527 207.233 119.565  0.00  0.00     0.050 A 
ATOM     21  C18  11 d          -7.853 207.216 118.356  0.00  0.00     0.008 A 
ATOM     22  C19  11 d          -8.746 207.441 117.308  0.00  0.00     0.017 A 
ATOM     23  S2   11 d         -13.691 204.987 116.683  0.00  0.00    -0.045 SA
ATOM     24  O1   11 d         -12.911 207.125 119.359  0.00  0.00    -0.266 OA
ATOM     25  C20  11 d         -15.571 203.601 118.722  0.00  0.00     0.258 A 
ATOM     26  O2   11 d         -15.858 203.151 117.560  0.00  0.00    -0.267 OA
ATOM     27  N3   11 d         -16.250 203.189 119.873  0.00  0.00    -0.322 N 
ATOM     28  C21  11 d         -15.641 203.890 120.976  0.00  0.00     0.046 A 
ATOM     29  C22  11 d         -14.580 204.693 120.547  0.00  0.00     0.008 A 
ATOM     30  C23  11 d         -13.766 205.319 121.516  0.00  0.00     0.015 A 
ATOM     31  C24  11 d         -14.106 205.215 122.879  0.00  0.00     0.001 A 
ATOM     32  C25  11 d         -15.222 204.460 123.282  0.00  0.00     0.002 A 
ATOM     33  C26  11 d         -15.991 203.775 122.327  0.00  0.00     0.030 A 
ATOM     34  H13  11 d         -17.058 202.485 119.936  0.00  0.00     0.169 HD
ENDROOT
TORSDOF 0
ENDMDL
MODEL 2
REMARK VINA RESULT:     -10.5      1.665      2.297
REMARK  0 active torsions:
REMARK  status: ('A' for Active; 'I' for Inactive)
ROOT
ATOM      1  C1   11 d         -14.961 204.467 120.411  0.00  0.00     0.067 A 
ATOM      2  C2   11 d         -14.593 204.975 119.199  0.00  0.00     0.093 A 
ATOM      3  C3   11 d         -13.983 206.196 118.869  0.00  0.00     0.269 A 
ATOM      4  N1   11 d         -13.765 206.328 117.526  0.00  0.00    -0.278 N 
ATOM      5  C4   11 d         -14.282 205.256 116.888  0.00  0.00     0.178 A 
ATOM      6  N2   11 d         -14.309 205.082 115.597  0.00  0.00    -0.223 NA
ATOM      7  C5   11 d         -13.787 206.154 114.765  0.00  0.00     0.075 C 
ATOM      8  C6   11 d         -13.862 205.988 113.280  0.00  0.00    -0.001 A 
ATOM      9  C7   11 d         -13.082 206.821 112.438  0.00  0.00    -0.045 A 
ATOM     10  C8   11 d         -13.214 206.719 111.040  0.00  0.00     0.008 A 
ATOM     11  C9   11 d         -14.054 205.750 110.475  0.00  0.00     0.001 A 
ATOM     12  C10  11 d         -14.786 204.890 111.303  0.00  0.00     0.001 A 
ATOM     13  C11  11 d         -14.694 205.009 112.698  0.00  0.00     0.014 A 
ATOM     14  C12  11 d         -12.215 207.900 113.038  0.00  0.00     0.044 C 
ATOM     15  C13  11 d         -12.768 208.403 114.377  0.00  0.00     0.044 C 
ATOM     16  C14  11 d         -13.246 207.290 115.302  0.00  0.00    -0.022 C 
ATOM     17  C15  11 d         -13.102 207.451 116.822  0.00  0.00     0.166 C 
ATOM     18  C16  11 d         -11.639 207.574 117.258  0.00  0.00     0.010 A 
ATOM     19  S1   11 d         -11.170 207.866 118.658  0.00  0.00    -0.104 SA
ATOM     20  C17  11 d          -9.678 207.885 118.557  0.00  0.00     0.050 A 
ATOM     21  C18  11 d          -9.336 207.628 117.240  0.00  0.00     0.008 A 
ATOM     22  C19  11 d         -10.487 207.444 116.474  0.00  0.00     0.017 A 
ATOM     23  S2   11 d         -14.842 204.294 117.882  0.00  0.00    -0.045 SA
ATOM     24  O1   11 d         -13.864 207.159 119.664  0.00  0.00    -0.266 OA
ATOM     25  C20  11 d         -15.842 203.281 120.636  0.00  0.00     0.258 A 
ATOM     26  O2   11 d         -16.313 202.499 119.740  0.00  0.00    -0.267 OA
ATOM     27  N3   11 d         -16.118 203.111 121.997  0.00  0.00    -0.322 N 
ATOM     28  C21  11 d         -15.407 204.158 122.688  0.00  0.00     0.046 A 
ATOM     29  C22  11 d         -14.667 204.945 121.800  0.00  0.00     0.008 A 
ATOM     30  C23  11 d         -13.780 205.909 122.324  0.00  0.00     0.015 A 
ATOM     31  C24  11 d         -13.743 206.136 123.714  0.00  0.00     0.001 A 
ATOM     32  C25  11 d         -14.551 205.380 124.583  0.00  0.00     0.002 A 
ATOM     33  C26  11 d         -15.380 204.368 124.072  0.00  0.00     0.030 A 
ATOM     34  H13  11 d         -16.729 202.353 122.449  0.00  0.00     0.169 HD
ENDROOT
TORSDOF 0
ENDMDL
MODEL 3
REMARK VINA RESULT:     -10.4      1.919      4.348
REMARK  0 active torsions:
REMARK  status: ('A' for Active; 'I' for Inactive)
ROOT
ATOM      1  C1   11 d         -14.063 205.191 119.291  0.00  0.00     0.067 A 
ATOM      2  C2   11 d         -13.435 205.638 118.165  0.00  0.00     0.093 A 
ATOM      3  C3   11 d         -13.575 205.241 116.826  0.00  0.00     0.269 A 
ATOM      4  N1   11 d         -12.764 205.948 115.981  0.00  0.00    -0.278 N 
ATOM      5  C4   11 d         -11.993 206.785 116.708  0.00  0.00     0.178 A 
ATOM      6  N2   11 d         -11.063 207.564 116.234  0.00  0.00    -0.223 NA
ATOM      7  C5   11 d         -10.789 207.490 114.808  0.00  0.00     0.075 C 
ATOM      8  C6   11 d          -9.685 208.339 114.260  0.00  0.00    -0.001 A 
ATOM      9  C7   11 d          -9.596 208.564 112.864  0.00  0.00    -0.045 A 
ATOM     10  C8   11 d          -8.512 209.296 112.343  0.00  0.00     0.008 A 
ATOM     11  C9   11 d          -7.562 209.865 113.202  0.00  0.00     0.001 A 
ATOM     12  C10  11 d          -7.676 209.690 114.586  0.00  0.00     0.001 A 
ATOM     13  C11  11 d          -8.729 208.929 115.115  0.00  0.00     0.014 A 
ATOM     14  C12  11 d         -10.584 207.910 111.930  0.00  0.00     0.044 C 
ATOM     15  C13  11 d         -11.129 206.595 112.499  0.00  0.00     0.044 C 
ATOM     16  C14  11 d         -11.502 206.671 113.975  0.00  0.00    -0.022 C 
ATOM     17  C15  11 d         -12.680 205.840 114.506  0.00  0.00     0.166 C 
ATOM     18  C16  11 d         -14.009 206.235 113.857  0.00  0.00     0.010 A 
ATOM     19  S1   11 d         -15.323 205.532 114.067  0.00  0.00    -0.104 SA
ATOM     20  C17  11 d         -16.295 206.292 113.223  0.00  0.00     0.050 A 
ATOM     21  C18  11 d         -15.606 207.320 112.600  0.00  0.00     0.008 A 
ATOM     22  C19  11 d         -14.262 207.290 112.972  0.00  0.00     0.017 A 
ATOM     23  S2   11 d         -12.351 206.680 118.153  0.00  0.00    -0.045 SA
ATOM     24  O1   11 d         -14.183 204.208 116.458  0.00  0.00    -0.266 OA
ATOM     25  C20  11 d         -13.657 205.486 120.700  0.00  0.00     0.258 A 
ATOM     26  O2   11 d         -12.722 206.274 121.075  0.00  0.00    -0.267 OA
ATOM     27  N3   11 d         -14.441 204.768 121.609  0.00  0.00    -0.322 N 
ATOM     28  C21  11 d         -15.387 204.016 120.823  0.00  0.00     0.046 A 
ATOM     29  C22  11 d         -15.238 204.277 119.457  0.00  0.00     0.008 A 
ATOM     30  C23  11 d         -16.191 203.754 118.558  0.00  0.00     0.015 A 
ATOM     31  C24  11 d         -17.198 202.893 119.037  0.00  0.00     0.001 A 
ATOM     32  C25  11 d         -17.283 202.586 120.407  0.00  0.00     0.002 A 
ATOM     33  C26  11 d         -16.382 203.164 121.315  0.00  0.00     0.030 A 
ATOM     34  H13  11 d         -14.368 204.775 122.680  0.00  0.00     0.169 HD
ENDROOT
TORSDOF 0
ENDMDL
MODEL 4
REMARK VINA RESULT:     -10.0      5.231      8.086
REMARK  0 active torsions:
REMARK  status: ('A' for Active; 'I' for Inactive)
ROOT
ATOM      1  C1   11 d          -5.808 209.121 119.389  0.00  0.00     0.067 A 
ATOM      2  C2   11 d          -6.481 209.025 118.206  0.00  0.00     0.093 A 
ATOM      3  C3   11 d          -6.262 209.668 116.978  0.00  0.00     0.269 A 
ATOM      4  N1   11 d          -7.161 209.290 116.019  0.00  0.00    -0.278 N 
ATOM      5  C4   11 d          -8.064 208.450 116.568  0.00  0.00     0.178 A 
ATOM      6  N2   11 d          -9.098 207.944 115.959  0.00  0.00    -0.223 NA
ATOM      7  C5   11 d          -9.336 208.359 114.586  0.00  0.00     0.075 C 
ATOM      8  C6   11 d         -10.551 207.827 113.893  0.00  0.00    -0.001 A 
ATOM      9  C7   11 d         -10.654 207.918 112.482  0.00  0.00    -0.045 A 
ATOM     10  C8   11 d         -11.833 207.491 111.840  0.00  0.00     0.008 A 
ATOM     11  C9   11 d         -12.872 206.908 112.578  0.00  0.00     0.001 A 
ATOM     12  C10  11 d         -12.752 206.767 113.966  0.00  0.00     0.001 A 
ATOM     13  C11  11 d         -11.600 207.226 114.622  0.00  0.00     0.014 A 
ATOM     14  C12  11 d          -9.563 208.592 111.688  0.00  0.00     0.044 C 
ATOM     15  C13  11 d          -8.827 209.656 112.511  0.00  0.00     0.044 C 
ATOM     16  C14  11 d          -8.492 209.213 113.930  0.00  0.00    -0.022 C 
ATOM     17  C15  11 d          -7.207 209.719 114.601  0.00  0.00     0.166 C 
ATOM     18  C16  11 d          -5.946 209.268 113.859  0.00  0.00     0.010 A 
ATOM     19  S1   11 d          -4.542 209.697 114.187  0.00  0.00    -0.104 SA
ATOM     20  C17  11 d          -3.689 208.990 113.183  0.00  0.00     0.050 A 
ATOM     21  C18  11 d          -4.520 208.236 112.372  0.00  0.00     0.008 A 
ATOM     22  C19  11 d          -5.848 208.396 112.767  0.00  0.00     0.017 A 
ATOM     23  S2   11 d          -7.715 208.191 117.996  0.00  0.00    -0.045 SA
ATOM     24  O1   11 d          -5.494 210.648 116.825  0.00  0.00    -0.266 OA
ATOM     25  C20  11 d          -6.275 208.602 120.711  0.00  0.00     0.258 A 
ATOM     26  O2   11 d          -7.328 207.909 120.930  0.00  0.00    -0.267 OA
ATOM     27  N3   11 d          -5.402 208.981 121.736  0.00  0.00    -0.322 N 
ATOM     28  C21  11 d          -4.339 209.725 121.108  0.00  0.00     0.046 A 
ATOM     29  C22  11 d          -4.507 209.785 119.721  0.00  0.00     0.008 A 
ATOM     30  C23  11 d          -3.470 210.330 118.934  0.00  0.00     0.015 A 
ATOM     31  C24  11 d          -2.348 210.903 119.564  0.00  0.00     0.001 A 
ATOM     32  C25  11 d          -2.236 210.897 120.966  0.00  0.00     0.002 A 
ATOM     33  C26  11 d          -3.229 210.288 121.750  0.00  0.00     0.030 A 
ATOM     34  H13  11 d          -5.490 208.760 122.783  0.00  0.00     0.169 HD
ENDROOT
TORSDOF 0
ENDMDL
MODEL 5
REMARK VINA RESULT:      -9.8      2.647      8.321
REMARK  0 active torsions:
REMARK  status: ('A' for Active; 'I' for Inactive)
ROOT
ATOM      1  C1   11 d         -12.911 206.374 113.584  0.00  0.00     0.067 A 
ATOM      2  C2   11 d         -12.865 206.145 114.928  0.00  0.00     0.093 A 
ATOM      3  C3   11 d         -13.901 206.003 115.864  0.00  0.00     0.269 A 
ATOM      4  N1   11 d         -13.438 205.769 117.130  0.00  0.00    -0.278 N 
ATOM      5  C4   11 d         -12.089 205.823 117.122  0.00  0.00     0.178 A 
ATOM      6  N2   11 d         -11.319 205.709 118.166  0.00  0.00    -0.223 NA
ATOM      7  C5   11 d         -11.963 205.565 119.461  0.00  0.00     0.075 C 
ATOM      8  C6   11 d         -11.091 205.487 120.675  0.00  0.00    -0.001 A 
ATOM      9  C7   11 d         -11.627 205.015 121.899  0.00  0.00    -0.045 A 
ATOM     10  C8   11 d         -10.827 205.019 123.058  0.00  0.00     0.008 A 
ATOM     11  C9   11 d          -9.484 205.415 122.993  0.00  0.00     0.001 A 
ATOM     12  C10  11 d          -8.936 205.832 121.774  0.00  0.00     0.001 A 
ATOM     13  C11  11 d          -9.734 205.872 120.620  0.00  0.00     0.014 A 
ATOM     14  C12  11 d         -13.084 204.637 121.988  0.00  0.00     0.044 C 
ATOM     15  C13  11 d         -13.942 205.412 120.981  0.00  0.00     0.044 C 
ATOM     16  C14  11 d         -13.325 205.506 119.591  0.00  0.00    -0.022 C 
ATOM     17  C15  11 d         -14.234 205.519 118.354  0.00  0.00     0.166 C 
ATOM     18  C16  11 d         -15.047 204.229 118.216  0.00  0.00     0.010 A 
ATOM     19  S1   11 d         -16.117 203.980 117.187  0.00  0.00    -0.104 SA
ATOM     20  C17  11 d         -16.599 202.594 117.474  0.00  0.00     0.050 A 
ATOM     21  C18  11 d         -15.877 202.106 118.551  0.00  0.00     0.008 A 
ATOM     22  C19  11 d         -14.963 203.065 118.988  0.00  0.00     0.017 A 
ATOM     23  S2   11 d         -11.597 206.052 115.731  0.00  0.00    -0.045 SA
ATOM     24  O1   11 d         -15.101 206.288 115.634  0.00  0.00    -0.266 OA
ATOM     25  C20  11 d         -11.758 206.776 112.720  0.00  0.00     0.258 A 
ATOM     26  O2   11 d         -10.535 206.878 113.080  0.00  0.00    -0.267 OA
ATOM     27  N3   11 d         -12.180 207.051 111.416  0.00  0.00    -0.322 N 
ATOM     28  C21  11 d         -13.601 206.810 111.390  0.00  0.00     0.046 A 
ATOM     29  C22  11 d         -14.065 206.356 112.628  0.00  0.00     0.008 A 
ATOM     30  C23  11 d         -15.400 205.912 112.733  0.00  0.00     0.015 A 
ATOM     31  C24  11 d         -16.263 206.041 111.627  0.00  0.00     0.001 A 
ATOM     32  C25  11 d         -15.792 206.569 110.411  0.00  0.00     0.002 A 
ATOM     33  C26  11 d         -14.445 206.942 110.281  0.00  0.00     0.030 A 
ATOM     34  H13  11 d         -11.575 207.369 110.588  0.00  0.00     0.169 HD
ENDROOT
TORSDOF 0
ENDMDL
MODEL 6
REMARK VINA RESULT:      -9.8      3.222      7.271
REMARK  0 active torsions:
REMARK  status: ('A' for Active; 'I' for Inactive)
ROOT
ATOM      1  C1   11 d         -12.607 207.320 112.158  0.00  0.00     0.067 A 
ATOM      2  C2   11 d         -11.864 207.563 113.276  0.00  0.00     0.093 A 
ATOM      3  C3   11 d         -12.262 207.832 114.595  0.00  0.00     0.269 A 
ATOM      4  N1   11 d         -11.201 208.011 115.439  0.00  0.00    -0.278 N 
ATOM      5  C4   11 d         -10.056 207.952 114.726  0.00  0.00     0.178 A 
ATOM      6  N2   11 d          -8.857 208.141 115.198  0.00  0.00    -0.223 NA
ATOM      7  C5   11 d          -8.740 208.501 116.602  0.00  0.00     0.075 C 
ATOM      8  C6   11 d          -7.372 208.775 117.144  0.00  0.00    -0.001 A 
ATOM      9  C7   11 d          -7.160 208.795 118.545  0.00  0.00    -0.045 A 
ATOM     10  C8   11 d          -5.891 209.132 119.055  0.00  0.00     0.008 A 
ATOM     11  C9   11 d          -4.819 209.374 118.185  0.00  0.00     0.001 A 
ATOM     12  C10  11 d          -5.011 209.303 116.800  0.00  0.00     0.001 A 
ATOM     13  C11  11 d          -6.281 209.008 116.280  0.00  0.00     0.014 A 
ATOM     14  C12  11 d          -8.321 208.587 119.487  0.00  0.00     0.044 C 
ATOM     15  C13  11 d          -9.650 209.036 118.868  0.00  0.00     0.044 C 
ATOM     16  C14  11 d          -9.833 208.599 117.419  0.00  0.00    -0.022 C 
ATOM     17  C15  11 d         -11.237 208.259 116.899  0.00  0.00     0.166 C 
ATOM     18  C16  11 d         -11.859 207.069 117.635  0.00  0.00     0.010 A 
ATOM     19  S1   11 d         -13.266 206.569 117.449  0.00  0.00    -0.104 SA
ATOM     20  C17  11 d         -13.378 205.408 118.384  0.00  0.00     0.050 A 
ATOM     21  C18  11 d         -12.162 205.262 119.032  0.00  0.00     0.008 A 
ATOM     22  C19  11 d         -11.267 206.237 118.593  0.00  0.00     0.017 A 
ATOM     23  S2   11 d         -10.362 207.650 113.296  0.00  0.00    -0.045 SA
ATOM     24  O1   11 d         -13.437 208.116 114.930  0.00  0.00    -0.266 OA
ATOM     25  C20  11 d         -12.100 207.308 110.751  0.00  0.00     0.258 A 
ATOM     26  O2   11 d         -10.883 207.430 110.378  0.00  0.00    -0.267 OA
ATOM     27  N3   11 d         -13.151 207.152 109.841  0.00  0.00    -0.322 N 
ATOM     28  C21  11 d         -14.353 207.030 110.627  0.00  0.00     0.046 A 
ATOM     29  C22  11 d         -14.074 207.067 111.996  0.00  0.00     0.008 A 
ATOM     30  C23  11 d         -15.115 206.793 112.909  0.00  0.00     0.015 A 
ATOM     31  C24  11 d         -16.426 206.604 112.430  0.00  0.00     0.001 A 
ATOM     32  C25  11 d         -16.695 206.644 111.050  0.00  0.00     0.002 A 
ATOM     33  C26  11 d         -15.650 206.842 110.134  0.00  0.00     0.030 A 
ATOM     34  H13  11 d         -13.085 207.119 108.770  0.00  0.00     0.169 HD
ENDROOT
TORSDOF 0
ENDMDL
MODEL 7
REMARK VINA RESULT:      -9.1      4.631      6.821
REMARK  0 active torsions:
REMARK  status: ('A' for Active; 'I' for Inactive)
ROOT
ATOM      1  C1   11 d         -11.657 207.718 112.951  0.00  0.00     0.067 A 
ATOM      2  C2   11 d         -10.323 207.967 113.088  0.00  0.00     0.093 A 
ATOM      3  C3   11 d          -9.616 208.603 114.121  0.00  0.00     0.269 A 
ATOM      4  N1   11 d          -8.269 208.646 113.888  0.00  0.00    -0.278 N 
ATOM      5  C4   11 d          -8.016 208.122 112.669  0.00  0.00     0.178 A 
ATOM      6  N2   11 d          -6.848 208.061 112.097  0.00  0.00    -0.223 NA
ATOM      7  C5   11 d          -5.724 208.654 112.804  0.00  0.00     0.075 C 
ATOM      8  C6   11 d          -4.386 208.638 112.133  0.00  0.00    -0.001 A 
ATOM      9  C7   11 d          -3.215 208.886 112.892  0.00  0.00    -0.045 A 
ATOM     10  C8   11 d          -1.965 208.951 112.245  0.00  0.00     0.008 A 
ATOM     11  C9   11 d          -1.864 208.698 110.870  0.00  0.00     0.001 A 
ATOM     12  C10  11 d          -3.012 208.400 110.127  0.00  0.00     0.001 A 
ATOM     13  C11  11 d          -4.268 208.373 110.752  0.00  0.00     0.014 A 
ATOM     14  C12  11 d          -3.323 209.210 114.361  0.00  0.00     0.044 C 
ATOM     15  C13  11 d          -4.659 209.877 114.706  0.00  0.00     0.044 C 
ATOM     16  C14  11 d          -5.864 209.220 114.042  0.00  0.00    -0.022 C 
ATOM     17  C15  11 d          -7.213 209.190 114.774  0.00  0.00     0.166 C 
ATOM     18  C16  11 d          -7.147 208.400 116.084  0.00  0.00     0.010 A 
ATOM     19  S1   11 d          -8.260 208.287 117.090  0.00  0.00    -0.104 SA
ATOM     20  C17  11 d          -7.701 207.423 118.174  0.00  0.00     0.050 A 
ATOM     21  C18  11 d          -6.407 207.078 117.820  0.00  0.00     0.008 A 
ATOM     22  C19  11 d          -6.079 207.650 116.591  0.00  0.00     0.017 A 
ATOM     23  S2   11 d          -9.285 207.631 112.053  0.00  0.00    -0.045 SA
ATOM     24  O1   11 d         -10.157 209.267 115.037  0.00  0.00    -0.266 OA
ATOM     25  C20  11 d         -12.344 207.275 111.699  0.00  0.00     0.258 A 
ATOM     26  O2   11 d         -11.786 206.970 110.589  0.00  0.00    -0.267 OA
ATOM     27  N3   11 d         -13.731 207.236 111.875  0.00  0.00    -0.322 N 
ATOM     28  C21  11 d         -13.978 207.622 113.241  0.00  0.00     0.046 A 
ATOM     29  C22  11 d         -12.784 207.860 113.928  0.00  0.00     0.008 A 
ATOM     30  C23  11 d         -12.833 208.083 115.321  0.00  0.00     0.015 A 
ATOM     31  C24  11 d         -14.083 208.175 115.965  0.00  0.00     0.001 A 
ATOM     32  C25  11 d         -15.275 208.004 115.238  0.00  0.00     0.002 A 
ATOM     33  C26  11 d         -15.228 207.707 113.867  0.00  0.00     0.030 A 
ATOM     34  H13  11 d         -14.473 206.966 111.147  0.00  0.00     0.169 HD
ENDROOT
TORSDOF 0
ENDMDL
MODEL 8
REMARK VINA RESULT:      -8.9      3.253      7.049
REMARK  0 active torsions:
REMARK  status: ('A' for Active; 'I' for Inactive)
ROOT
ATOM      1  C1   11 d          -7.997 208.942 116.001  0.00  0.00     0.067 A 
ATOM      2  C2   11 d          -9.211 208.429 115.650  0.00  0.00     0.093 A 
ATOM      3  C3   11 d          -9.997 207.443 116.266  0.00  0.00     0.269 A 
ATOM      4  N1   11 d         -11.171 207.214 115.602  0.00  0.00    -0.278 N 
ATOM      5  C4   11 d         -11.195 207.965 114.480  0.00  0.00     0.178 A 
ATOM      6  N2   11 d         -12.134 207.951 113.578  0.00  0.00    -0.223 NA
ATOM      7  C5   11 d         -13.227 207.010 113.763  0.00  0.00     0.075 C 
ATOM      8  C6   11 d         -14.285 206.946 112.706  0.00  0.00    -0.001 A 
ATOM      9  C7   11 d         -15.521 206.312 112.984  0.00  0.00    -0.045 A 
ATOM     10  C8   11 d         -16.484 206.182 111.964  0.00  0.00     0.008 A 
ATOM     11  C9   11 d         -16.257 206.740 110.699  0.00  0.00     0.001 A 
ATOM     12  C10  11 d         -15.058 207.414 110.436  0.00  0.00     0.001 A 
ATOM     13  C11  11 d         -14.074 207.515 111.431  0.00  0.00     0.014 A 
ATOM     14  C12  11 d         -15.751 205.664 114.327  0.00  0.00     0.044 C 
ATOM     15  C13  11 d         -14.442 205.187 114.967  0.00  0.00     0.044 C 
ATOM     16  C14  11 d         -13.302 206.193 114.858  0.00  0.00    -0.022 C 
ATOM     17  C15  11 d         -12.262 206.289 115.984  0.00  0.00     0.166 C 
ATOM     18  C16  11 d         -12.886 206.709 117.318  0.00  0.00     0.010 A 
ATOM     19  S1   11 d         -12.162 206.772 118.636  0.00  0.00    -0.104 SA
ATOM     20  C17  11 d         -13.198 207.230 119.612  0.00  0.00     0.050 A 
ATOM     21  C18  11 d         -14.385 207.409 118.921  0.00  0.00     0.008 A 
ATOM     22  C19  11 d         -14.204 207.105 117.572  0.00  0.00     0.017 A 
ATOM     23  S2   11 d          -9.968 208.813 114.408  0.00  0.00    -0.045 SA
ATOM     24  O1   11 d          -9.586 206.684 117.177  0.00  0.00    -0.266 OA
ATOM     25  C20  11 d          -7.119 209.794 115.141  0.00  0.00     0.258 A 
ATOM     26  O2   11 d          -7.404 210.254 113.982  0.00  0.00    -0.267 OA
ATOM     27  N3   11 d          -5.892 210.040 115.764  0.00  0.00    -0.322 N 
ATOM     28  C21  11 d          -5.949 209.384 117.046  0.00  0.00     0.046 A 
ATOM     29  C22  11 d          -7.190 208.773 117.252  0.00  0.00     0.008 A 
ATOM     30  C23  11 d          -7.477 208.229 118.522  0.00  0.00     0.015 A 
ATOM     31  C24  11 d          -6.475 208.210 119.512  0.00  0.00     0.001 A 
ATOM     32  C25  11 d          -5.208 208.767 119.257  0.00  0.00     0.002 A 
ATOM     33  C26  11 d          -4.943 209.376 118.020  0.00  0.00     0.030 A 
ATOM     34  H13  11 d          -5.068 210.609 115.378  0.00  0.00     0.169 HD
ENDROOT
TORSDOF 0
ENDMDL
MODEL 9
REMARK VINA RESULT:      -8.8      2.828      8.514
REMARK  0 active torsions:
REMARK  status: ('A' for Active; 'I' for Inactive)
ROOT
ATOM      1  C1   11 d         -10.721 207.595 115.932  0.00  0.00     0.067 A 
ATOM      2  C2   11 d         -10.480 207.169 117.206  0.00  0.00     0.093 A 
ATOM      3  C3   11 d          -9.294 207.160 117.955  0.00  0.00     0.269 A 
ATOM      4  N1   11 d          -9.470 206.655 119.214  0.00  0.00    -0.278 N 
ATOM      5  C4   11 d         -10.746 206.232 119.344  0.00  0.00     0.178 A 
ATOM      6  N2   11 d         -11.246 205.640 120.390  0.00  0.00    -0.223 NA
ATOM      7  C5   11 d         -10.344 205.360 121.496  0.00  0.00     0.075 C 
ATOM      8  C6   11 d         -10.894 204.632 122.683  0.00  0.00    -0.001 A 
ATOM      9  C7   11 d         -10.175 204.631 123.904  0.00  0.00    -0.045 A 
ATOM     10  C8   11 d         -10.653 203.879 124.995  0.00  0.00     0.008 A 
ATOM     11  C9   11 d         -11.873 203.194 124.903  0.00  0.00     0.001 A 
ATOM     12  C10  11 d         -12.613 203.236 123.716  0.00  0.00     0.001 A 
ATOM     13  C11  11 d         -12.127 203.948 122.609  0.00  0.00     0.014 A 
ATOM     14  C12  11 d          -8.837 205.322 123.992  0.00  0.00     0.044 C 
ATOM     15  C13  11 d          -8.120 205.363 122.638  0.00  0.00     0.044 C 
ATOM     16  C14  11 d          -9.029 205.736 121.472  0.00  0.00    -0.022 C 
ATOM     17  C15  11 d          -8.461 206.540 120.293  0.00  0.00     0.166 C 
ATOM     18  C16  11 d          -7.963 207.923 120.718  0.00  0.00     0.010 A 
ATOM     19  S1   11 d          -7.242 208.900 119.829  0.00  0.00    -0.104 SA
ATOM     20  C17  11 d          -6.974 210.080 120.707  0.00  0.00     0.050 A 
ATOM     21  C18  11 d          -7.491 209.804 121.962  0.00  0.00     0.008 A 
ATOM     22  C19  11 d          -8.074 208.537 121.971  0.00  0.00     0.017 A 
ATOM     23  S2   11 d         -11.509 206.527 118.095  0.00  0.00    -0.045 SA
ATOM     24  O1   11 d          -8.154 207.361 117.469  0.00  0.00    -0.266 OA
ATOM     25  C20  11 d         -11.953 207.319 115.130  0.00  0.00     0.258 A 
ATOM     26  O2   11 d         -13.010 206.725 115.537  0.00  0.00    -0.267 OA
ATOM     27  N3   11 d         -11.817 207.794 113.822  0.00  0.00    -0.322 N 
ATOM     28  C21  11 d         -10.516 208.411 113.748  0.00  0.00     0.046 A 
ATOM     29  C22  11 d          -9.859 208.367 114.981  0.00  0.00     0.008 A 
ATOM     30  C23  11 d          -8.646 209.073 115.130  0.00  0.00     0.015 A 
ATOM     31  C24  11 d          -8.069 209.706 114.011  0.00  0.00     0.001 A 
ATOM     32  C25  11 d          -8.714 209.675 112.762  0.00  0.00     0.002 A 
ATOM     33  C26  11 d          -9.958 209.037 112.627  0.00  0.00     0.030 A 
ATOM     34  H13  11 d         -12.534 207.727 113.026  0.00  0.00     0.169 HD
ENDROOT
TORSDOF 0
ENDMDL
MODEL 10
REMARK VINA RESULT:      -8.7      3.841      9.093
REMARK  0 active torsions:
REMARK  status: ('A' for Active; 'I' for Inactive)
ROOT
ATOM      1  C1   11 d          -8.325 208.462 113.840  0.00  0.00     0.067 A 
ATOM      2  C2   11 d          -8.110 208.607 115.179  0.00  0.00     0.093 A 
ATOM      3  C3   11 d          -9.019 208.665 116.247  0.00  0.00     0.269 A 
ATOM      4  N1   11 d          -8.400 208.808 117.458  0.00  0.00    -0.278 N 
ATOM      5  C4   11 d          -7.070 208.933 117.260  0.00  0.00     0.178 A 
ATOM      6  N2   11 d          -6.182 209.148 118.188  0.00  0.00    -0.223 NA
ATOM      7  C5   11 d          -6.664 209.323 119.549  0.00  0.00     0.075 C 
ATOM      8  C6   11 d          -5.658 209.625 120.616  0.00  0.00    -0.001 A 
ATOM      9  C7   11 d          -6.011 209.472 121.980  0.00  0.00    -0.045 A 
ATOM     10  C8   11 d          -5.091 209.833 122.984  0.00  0.00     0.008 A 
ATOM     11  C9   11 d          -3.804 210.271 122.642  0.00  0.00     0.001 A 
ATOM     12  C10  11 d          -3.434 210.373 121.296  0.00  0.00     0.001 A 
ATOM     13  C11  11 d          -4.355 210.055 120.286  0.00  0.00     0.014 A 
ATOM     14  C12  11 d          -7.411 209.051 122.354  0.00  0.00     0.044 C 
ATOM     15  C13  11 d          -8.440 209.477 121.301  0.00  0.00     0.044 C 
ATOM     16  C14  11 d          -7.991 209.226 119.866  0.00  0.00    -0.022 C 
ATOM     17  C15  11 d          -9.030 208.854 118.798  0.00  0.00     0.166 C 
ATOM     18  C16  11 d          -9.737 207.532 119.109  0.00  0.00     0.010 A 
ATOM     19  S1   11 d         -10.888 206.956 118.330  0.00  0.00    -0.104 SA
ATOM     20  C17  11 d         -11.210 205.674 119.029  0.00  0.00     0.050 A 
ATOM     21  C18  11 d         -10.333 205.536 120.092  0.00  0.00     0.008 A 
ATOM     22  C19  11 d          -9.465 206.626 120.141  0.00  0.00     0.017 A 
ATOM     23  S2   11 d          -6.758 208.805 115.806  0.00  0.00    -0.045 SA
ATOM     24  O1   11 d         -10.258 208.811 116.109  0.00  0.00    -0.266 OA
ATOM     25  C20  11 d          -7.315 208.678 112.759  0.00  0.00     0.258 A 
ATOM     26  O2   11 d          -6.073 208.941 112.917  0.00  0.00    -0.267 OA
ATOM     27  N3   11 d          -7.902 208.566 111.494  0.00  0.00    -0.322 N 
ATOM     28  C21  11 d          -9.290 208.249 111.718  0.00  0.00     0.046 A 
ATOM     29  C22  11 d          -9.572 208.122 113.081  0.00  0.00     0.008 A 
ATOM     30  C23  11 d         -10.843 207.649 113.472  0.00  0.00     0.015 A 
ATOM     31  C24  11 d         -11.831 207.427 112.493  0.00  0.00     0.001 A 
ATOM     32  C25  11 d         -11.546 207.632 111.131  0.00  0.00     0.002 A 
ATOM     33  C26  11 d         -10.261 208.030 110.733  0.00  0.00     0.030 A 
ATOM     34  H13  11 d          -7.423 208.683 110.540  0.00  0.00     0.169 HD
ENDROOT
TORSDOF 0
ENDMDL
