MODEL 1
REMARK VINA RESULT:     -11.2      0.000      0.000
REMARK  5 active torsions:
REMARK  status: ('A' for Active; 'I' for Inactive)
REMARK    1  A    between atoms: C2_2  and  N3_14 
REMARK       I    between atoms: N3_14  and  C12_15 
REMARK    2  A    between atoms: C12_15  and  C13_17 
REMARK    3  A    between atoms: C13_17  and  N4_18 
REMARK    4  A    between atoms: N4_18  and  C14_19 
REMARK    5  A    between atoms: N4_18  and  S1_35 
ROOT
ATOM      1  N4   11 d         -11.064 206.793 118.012  0.00  0.00    -0.267 N 
ENDROOT
BRANCH   1   2
ATOM      2  C13  11 d         -11.252 206.063 119.222  0.00  0.00     0.244 C 
BRANCH   2   3
ATOM      3  C12  11 d         -12.613 206.029 119.883  0.00  0.00     0.241 C 
ATOM      4  N3   11 d         -13.073 204.964 120.719  0.00  0.00    -0.319 N 
ATOM      5  H12  11 d         -12.397 204.142 120.874  0.00  0.00     0.169 HD
ATOM      6  O1   11 d         -13.366 207.031 119.646  0.00  0.00    -0.271 OA
BRANCH   4   7
ATOM      7  C2   11 d         -14.402 204.868 121.395  0.00  0.00     0.129 A 
ATOM      8  C1   11 d         -15.548 204.431 120.741  0.00  0.00     0.295 A 
ATOM      9  N2   11 d         -16.620 204.575 121.548  0.00  0.00    -0.217 N 
ATOM     10  O4   11 d         -15.600 204.069 119.536  0.00  0.00    -0.264 OA
ATOM     11  N1   11 d         -16.213 204.975 122.725  0.00  0.00    -0.289 N 
ATOM     12  C4   11 d         -17.990 204.388 121.154  0.00  0.00     0.060 A 
ATOM     13  C3   11 d         -14.864 205.203 122.689  0.00  0.00     0.057 A 
ATOM     14  C10  11 d         -17.079 205.164 123.903  0.00  0.00     0.178 C 
ATOM     15  C11  11 d         -14.062 205.492 123.931  0.00  0.00     0.072 C 
ATOM     16  C5   11 d         -18.566 203.107 121.115  0.00  0.00     0.031 A 
ATOM     17  C9   11 d         -18.781 205.516 120.871  0.00  0.00     0.031 A 
ATOM     18  C6   11 d         -19.927 202.957 120.797  0.00  0.00     0.002 A 
ATOM     19  C7   11 d         -20.713 204.086 120.516  0.00  0.00     0.000 A 
ATOM     20  C8   11 d         -20.139 205.366 120.550  0.00  0.00     0.002 A 
ENDBRANCH   4   7
ENDBRANCH   2   3
ENDBRANCH   1   2
BRANCH   1  21
ATOM     21  C14  11 d         -11.902 206.575 116.919  0.00  0.00     0.045 A 
ATOM     22  C15  11 d         -12.743 207.635 116.532  0.00  0.00     0.031 A 
ATOM     23  C16  11 d         -13.448 207.601 115.325  0.00  0.00     0.010 A 
ATOM     24  C17  11 d         -13.311 206.516 114.426  0.00  0.00    -0.049 A 
ATOM     25  C18  11 d         -14.014 206.495 113.050  0.00  0.00    -0.012 C 
ATOM     26  C28  11 d         -12.514 205.421 114.855  0.00  0.00     0.010 A 
ATOM     27  C19  11 d         -12.941 206.692 111.935  0.00  0.00     0.019 C 
ATOM     28  C23  11 d         -15.076 207.634 112.865  0.00  0.00     0.019 C 
ATOM     29  C26  11 d         -14.751 205.139 112.799  0.00  0.00     0.019 C 
ATOM     30  C20  11 d         -13.587 206.648 110.525  0.00  0.00    -0.013 C 
ATOM     31  C21  11 d         -14.634 207.778 110.392  0.00  0.00     0.009 C 
ATOM     32  C27  11 d         -14.285 205.283 110.321  0.00  0.00     0.009 C 
ATOM     33  C22  11 d         -15.730 207.590 111.466  0.00  0.00    -0.013 C 
ATOM     34  C24  11 d         -16.430 206.229 111.268  0.00  0.00     0.009 C 
ATOM     35  C25  11 d         -15.388 205.098 111.390  0.00  0.00    -0.013 C 
ATOM     36  C29  11 d         -11.835 205.443 116.086  0.00  0.00     0.031 A 
ENDBRANCH   1  21
BRANCH   1  37
ATOM     37  S1   11 d          -9.840 207.970 117.872  0.00  0.00     0.229 S 
ATOM     38  O2   11 d         -10.084 209.040 118.939  0.00  0.00    -0.206 OA
ATOM     39  O3   11 d          -9.946 208.681 116.521  0.00  0.00    -0.206 OA
ATOM     40  C30  11 d          -8.134 207.373 118.043  0.00  0.00     0.186 C 
ENDBRANCH   1  37
TORSDOF 5
ENDMDL
MODEL 2
REMARK VINA RESULT:     -11.2      3.065      8.766
REMARK  5 active torsions:
REMARK  status: ('A' for Active; 'I' for Inactive)
REMARK    1  A    between atoms: C2_2  and  N3_14 
REMARK       I    between atoms: N3_14  and  C12_15 
REMARK    2  A    between atoms: C12_15  and  C13_17 
REMARK    3  A    between atoms: C13_17  and  N4_18 
REMARK    4  A    between atoms: N4_18  and  C14_19 
REMARK    5  A    between atoms: N4_18  and  S1_35 
ROOT
ATOM      1  N4   11 d         -12.257 206.150 118.719  0.00  0.00    -0.267 N 
ENDROOT
BRANCH   1   2
ATOM      2  C13  11 d         -10.884 205.969 119.054  0.00  0.00     0.244 C 
BRANCH   2   3
ATOM      3  C12  11 d          -9.886 207.074 118.786  0.00  0.00     0.241 C 
ATOM      4  N3   11 d          -8.697 206.912 118.007  0.00  0.00    -0.319 N 
ATOM      5  H12  11 d          -8.518 205.935 117.595  0.00  0.00     0.169 HD
ATOM      6  O1   11 d         -10.158 208.202 119.315  0.00  0.00    -0.271 OA
BRANCH   4   7
ATOM      7  C2   11 d          -7.673 207.958 117.711  0.00  0.00     0.129 A 
ATOM      8  C1   11 d          -6.682 208.317 118.618  0.00  0.00     0.295 A 
ATOM      9  N2   11 d          -5.987 209.373 118.143  0.00  0.00    -0.217 N 
ATOM     10  O4   11 d          -6.531 207.814 119.762  0.00  0.00    -0.264 OA
ATOM     11  N1   11 d          -6.401 209.642 116.933  0.00  0.00    -0.289 N 
ATOM     12  C4   11 d          -5.004 210.120 118.879  0.00  0.00     0.060 A 
ATOM     13  C3   11 d          -7.456 208.829 116.618  0.00  0.00     0.057 A 
ATOM     14  C10  11 d          -5.827 210.674 116.050  0.00  0.00     0.178 C 
ATOM     15  C11  11 d          -8.037 208.763 115.230  0.00  0.00     0.072 C 
ATOM     16  C5   11 d          -3.676 209.672 118.980  0.00  0.00     0.031 A 
ATOM     17  C9   11 d          -5.367 211.355 119.447  0.00  0.00     0.031 A 
ATOM     18  C6   11 d          -2.717 210.457 119.643  0.00  0.00     0.002 A 
ATOM     19  C7   11 d          -3.084 211.689 120.208  0.00  0.00     0.000 A 
ATOM     20  C8   11 d          -4.410 212.137 120.112  0.00  0.00     0.002 A 
ENDBRANCH   4   7
ENDBRANCH   2   3
ENDBRANCH   1   2
BRANCH   1  21
ATOM     21  C14  11 d         -12.635 206.413 117.403  0.00  0.00     0.045 A 
ATOM     22  C15  11 d         -11.812 205.899 116.383  0.00  0.00     0.031 A 
ATOM     23  C16  11 d         -12.218 205.911 115.046  0.00  0.00     0.010 A 
ATOM     24  C17  11 d         -13.491 206.404 114.670  0.00  0.00    -0.049 A 
ATOM     25  C18  11 d         -13.994 206.350 113.210  0.00  0.00    -0.012 C 
ATOM     26  C28  11 d         -14.285 206.983 115.695  0.00  0.00     0.010 A 
ATOM     27  C19  11 d         -15.117 205.273 113.105  0.00  0.00     0.019 C 
ATOM     28  C23  11 d         -12.887 205.955 112.172  0.00  0.00     0.019 C 
ATOM     29  C26  11 d         -14.580 207.725 112.750  0.00  0.00     0.019 C 
ATOM     30  C20  11 d         -15.685 205.196 111.664  0.00  0.00    -0.013 C 
ATOM     31  C21  11 d         -14.558 204.817 110.675  0.00  0.00     0.009 C 
ATOM     32  C27  11 d         -16.266 206.572 111.266  0.00  0.00     0.009 C 
ATOM     33  C22  11 d         -13.444 205.886 110.733  0.00  0.00    -0.013 C 
ATOM     34  C24  11 d         -14.018 207.263 110.337  0.00  0.00     0.009 C 
ATOM     35  C25  11 d         -15.149 207.642 111.315  0.00  0.00    -0.013 C 
ATOM     36  C29  11 d         -13.858 207.002 117.035  0.00  0.00     0.031 A 
ENDBRANCH   1  21
BRANCH   1  37
ATOM     37  S1   11 d         -13.478 206.022 119.901  0.00  0.00     0.229 S 
ATOM     38  O2   11 d         -14.165 207.384 120.026  0.00  0.00    -0.206 OA
ATOM     39  O3   11 d         -12.858 205.728 121.268  0.00  0.00    -0.206 OA
ATOM     40  C30  11 d         -14.754 204.766 119.599  0.00  0.00     0.186 C 
ENDBRANCH   1  37
TORSDOF 5
ENDMDL
MODEL 3
REMARK VINA RESULT:     -11.1      5.882     10.325
REMARK  5 active torsions:
REMARK  status: ('A' for Active; 'I' for Inactive)
REMARK    1  A    between atoms: C2_2  and  N3_14 
REMARK       I    between atoms: N3_14  and  C12_15 
REMARK    2  A    between atoms: C12_15  and  C13_17 
REMARK    3  A    between atoms: C13_17  and  N4_18 
REMARK    4  A    between atoms: N4_18  and  C14_19 
REMARK    5  A    between atoms: N4_18  and  S1_35 
ROOT
ATOM      1  N4   11 d          -5.832 209.134 113.736  0.00  0.00    -0.267 N 
ENDROOT
BRANCH   1   2
ATOM      2  C13  11 d          -6.878 209.425 112.813  0.00  0.00     0.244 C 
BRANCH   2   3
ATOM      3  C12  11 d          -8.322 209.224 113.215  0.00  0.00     0.241 C 
ATOM      4  N3   11 d          -9.023 207.982 113.098  0.00  0.00    -0.319 N 
ATOM      5  H12  11 d          -8.473 207.151 112.694  0.00  0.00     0.169 HD
ATOM      6  O1   11 d          -8.915 210.255 113.675  0.00  0.00    -0.271 OA
BRANCH   4   7
ATOM      7  C2   11 d         -10.446 207.721 113.472  0.00  0.00     0.129 A 
ATOM      8  C1   11 d         -11.347 207.104 112.611  0.00  0.00     0.295 A 
ATOM      9  N2   11 d         -12.583 207.120 113.154  0.00  0.00    -0.217 N 
ATOM     10  O4   11 d         -11.079 206.700 111.449  0.00  0.00    -0.264 OA
ATOM     11  N1   11 d         -12.508 207.611 114.364  0.00  0.00    -0.289 N 
ATOM     12  C4   11 d         -13.792 206.727 112.482  0.00  0.00     0.060 A 
ATOM     13  C3   11 d         -11.228 208.027 114.610  0.00  0.00     0.057 A 
ATOM     14  C10  11 d         -13.634 207.712 115.309  0.00  0.00     0.178 C 
ATOM     15  C11  11 d         -10.771 208.466 115.976  0.00  0.00     0.072 C 
ATOM     16  C5   11 d         -14.171 205.377 112.398  0.00  0.00     0.031 A 
ATOM     17  C9   11 d         -14.640 207.722 111.962  0.00  0.00     0.031 A 
ATOM     18  C6   11 d         -15.394 205.025 111.800  0.00  0.00     0.002 A 
ATOM     19  C7   11 d         -16.237 206.022 111.284  0.00  0.00     0.000 A 
ATOM     20  C8   11 d         -15.859 207.371 111.363  0.00  0.00     0.002 A 
ENDBRANCH   4   7
ENDBRANCH   2   3
ENDBRANCH   1   2
BRANCH   1  21
ATOM     21  C14  11 d          -6.001 209.385 115.097  0.00  0.00     0.045 A 
ATOM     22  C15  11 d          -6.466 208.322 115.894  0.00  0.00     0.031 A 
ATOM     23  C16  11 d          -6.452 208.401 117.290  0.00  0.00     0.010 A 
ATOM     24  C17  11 d          -5.933 209.537 117.956  0.00  0.00    -0.049 A 
ATOM     25  C18  11 d          -5.831 209.612 119.496  0.00  0.00    -0.012 C 
ATOM     26  C28  11 d          -5.531 210.631 117.144  0.00  0.00     0.010 A 
ATOM     27  C19  11 d          -4.330 209.511 119.905  0.00  0.00     0.019 C 
ATOM     28  C23  11 d          -6.584 208.452 120.237  0.00  0.00     0.019 C 
ATOM     29  C26  11 d          -6.409 210.956 120.048  0.00  0.00     0.019 C 
ATOM     30  C20  11 d          -4.163 209.612 121.444  0.00  0.00    -0.013 C 
ATOM     31  C21  11 d          -4.930 208.459 122.132  0.00  0.00     0.009 C 
ATOM     32  C27  11 d          -4.732 210.963 121.936  0.00  0.00     0.009 C 
ATOM     33  C22  11 d          -6.429 208.552 121.771  0.00  0.00    -0.013 C 
ATOM     34  C24  11 d          -7.003 209.900 122.258  0.00  0.00     0.009 C 
ATOM     35  C25  11 d          -6.235 211.054 121.582  0.00  0.00    -0.013 C 
ATOM     36  C29  11 d          -5.579 210.563 115.740  0.00  0.00     0.031 A 
ENDBRANCH   1  21
BRANCH   1  37
ATOM     37  S1   11 d          -4.363 208.443 113.216  0.00  0.00     0.229 S 
ATOM     38  O2   11 d          -3.281 209.523 113.277  0.00  0.00    -0.206 OA
ATOM     39  O3   11 d          -4.469 208.025 111.748  0.00  0.00    -0.206 OA
ATOM     40  C30  11 d          -3.782 207.001 114.153  0.00  0.00     0.186 C 
ENDBRANCH   1  37
TORSDOF 5
ENDMDL
MODEL 4
REMARK VINA RESULT:     -10.8      6.336     10.248
REMARK  5 active torsions:
REMARK  status: ('A' for Active; 'I' for Inactive)
REMARK    1  A    between atoms: C2_2  and  N3_14 
REMARK       I    between atoms: N3_14  and  C12_15 
REMARK    2  A    between atoms: C12_15  and  C13_17 
REMARK    3  A    between atoms: C13_17  and  N4_18 
REMARK    4  A    between atoms: N4_18  and  C14_19 
REMARK    5  A    between atoms: N4_18  and  S1_35 
ROOT
ATOM      1  N4   11 d          -8.497 208.816 115.145  0.00  0.00    -0.267 N 
ENDROOT
BRANCH   1   2
ATOM      2  C13  11 d          -8.380 208.567 116.543  0.00  0.00     0.244 C 
BRANCH   2   3
ATOM      3  C12  11 d          -7.024 208.624 117.212  0.00  0.00     0.241 C 
ATOM      4  N3   11 d          -6.367 209.836 117.594  0.00  0.00    -0.319 N 
ATOM      5  H12  11 d          -6.884 210.755 117.382  0.00  0.00     0.169 HD
ATOM      6  O1   11 d          -6.465 207.497 117.423  0.00  0.00    -0.271 OA
BRANCH   4   7
ATOM      7  C2   11 d          -5.032 209.960 118.251  0.00  0.00     0.129 A 
ATOM      8  C1   11 d          -4.843 210.646 119.446  0.00  0.00     0.295 A 
ATOM      9  N2   11 d          -3.526 210.712 119.734  0.00  0.00    -0.217 N 
ATOM     10  O4   11 d          -5.751 211.223 120.101  0.00  0.00    -0.264 OA
ATOM     11  N1   11 d          -2.864 210.012 118.851  0.00  0.00    -0.289 N 
ATOM     12  C4   11 d          -2.944 211.487 120.797  0.00  0.00     0.060 A 
ATOM     13  C3   11 d          -3.726 209.547 117.895  0.00  0.00     0.057 A 
ATOM     14  C10  11 d          -1.410 209.772 118.876  0.00  0.00     0.178 C 
ATOM     15  C11  11 d          -3.306 208.554 116.843  0.00  0.00     0.072 C 
ATOM     16  C5   11 d          -2.903 210.998 122.113  0.00  0.00     0.031 A 
ATOM     17  C9   11 d          -2.347 212.724 120.494  0.00  0.00     0.031 A 
ATOM     18  C6   11 d          -2.264 211.743 123.120  0.00  0.00     0.002 A 
ATOM     19  C7   11 d          -1.669 212.977 122.812  0.00  0.00     0.000 A 
ATOM     20  C8   11 d          -1.713 213.469 121.499  0.00  0.00     0.002 A 
ENDBRANCH   4   7
ENDBRANCH   2   3
ENDBRANCH   1   2
BRANCH   1  21
ATOM     21  C14  11 d          -9.703 208.582 114.484  0.00  0.00     0.045 A 
ATOM     22  C15  11 d          -9.630 208.066 113.177  0.00  0.00     0.031 A 
ATOM     23  C16  11 d         -10.768 207.588 112.520  0.00  0.00     0.010 A 
ATOM     24  C17  11 d         -12.031 207.568 113.160  0.00  0.00    -0.049 A 
ATOM     25  C18  11 d         -13.284 206.968 112.484  0.00  0.00    -0.012 C 
ATOM     26  C28  11 d         -12.107 208.154 114.451  0.00  0.00     0.010 A 
ATOM     27  C19  11 d         -13.645 205.627 113.196  0.00  0.00     0.019 C 
ATOM     28  C23  11 d         -13.087 206.637 110.964  0.00  0.00     0.019 C 
ATOM     29  C26  11 d         -14.512 207.931 112.586  0.00  0.00     0.019 C 
ATOM     30  C20  11 d         -14.918 204.993 112.579  0.00  0.00    -0.013 C 
ATOM     31  C21  11 d         -14.683 204.696 111.079  0.00  0.00     0.009 C 
ATOM     32  C27  11 d         -16.104 205.976 112.721  0.00  0.00     0.009 C 
ATOM     33  C22  11 d         -14.356 206.013 110.341  0.00  0.00    -0.013 C 
ATOM     34  C24  11 d         -15.535 206.999 110.480  0.00  0.00     0.009 C 
ATOM     35  C25  11 d         -15.780 207.292 111.974  0.00  0.00    -0.013 C 
ATOM     36  C29  11 d         -10.967 208.666 115.096  0.00  0.00     0.031 A 
ENDBRANCH   1  21
BRANCH   1  37
ATOM     37  S1   11 d          -7.189 209.435 114.245  0.00  0.00     0.229 S 
ATOM     38  O2   11 d          -6.716 210.725 114.919  0.00  0.00    -0.206 OA
ATOM     39  O3   11 d          -7.655 209.830 112.842  0.00  0.00    -0.206 OA
ATOM     40  C30  11 d          -5.758 208.334 114.055  0.00  0.00     0.186 C 
ENDBRANCH   1  37
TORSDOF 5
ENDMDL
MODEL 5
REMARK VINA RESULT:     -10.6      6.247      9.488
REMARK  5 active torsions:
REMARK  status: ('A' for Active; 'I' for Inactive)
REMARK    1  A    between atoms: C2_2  and  N3_14 
REMARK       I    between atoms: N3_14  and  C12_15 
REMARK    2  A    between atoms: C12_15  and  C13_17 
REMARK    3  A    between atoms: C13_17  and  N4_18 
REMARK    4  A    between atoms: N4_18  and  C14_19 
REMARK    5  A    between atoms: N4_18  and  S1_35 
ROOT
ATOM      1  N4   11 d          -8.473 208.793 115.369  0.00  0.00    -0.267 N 
ENDROOT
BRANCH   1   2
ATOM      2  C13  11 d          -8.366 208.485 116.756  0.00  0.00     0.244 C 
BRANCH   2   3
ATOM      3  C12  11 d          -7.043 208.030 117.332  0.00  0.00     0.241 C 
ATOM      4  N3   11 d          -6.226 207.006 116.757  0.00  0.00    -0.319 N 
ATOM      5  H12  11 d          -6.593 206.539 115.860  0.00  0.00     0.169 HD
ATOM      6  O1   11 d          -6.675 208.619 118.402  0.00  0.00    -0.271 OA
BRANCH   4   7
ATOM      7  C2   11 d          -4.916 206.510 117.277  0.00  0.00     0.129 A 
ATOM      8  C1   11 d          -4.741 205.218 117.760  0.00  0.00     0.295 A 
ATOM      9  N2   11 d          -3.504 205.089 118.286  0.00  0.00    -0.217 N 
ATOM     10  O4   11 d          -5.638 204.336 117.810  0.00  0.00    -0.264 OA
ATOM     11  N1   11 d          -2.835 206.191 118.068  0.00  0.00    -0.289 N 
ATOM     12  C4   11 d          -3.029 203.952 119.027  0.00  0.00     0.060 A 
ATOM     13  C3   11 d          -3.654 207.115 117.478  0.00  0.00     0.057 A 
ATOM     14  C10  11 d          -1.419 206.406 118.417  0.00  0.00     0.178 C 
ATOM     15  C11  11 d          -3.136 208.419 116.931  0.00  0.00     0.072 C 
ATOM     16  C5   11 d          -2.544 202.808 118.371  0.00  0.00     0.031 A 
ATOM     17  C9   11 d          -2.987 204.019 120.431  0.00  0.00     0.031 A 
ATOM     18  C6   11 d          -2.018 201.739 119.117  0.00  0.00     0.002 A 
ATOM     19  C7   11 d          -1.978 201.812 120.518  0.00  0.00     0.000 A 
ATOM     20  C8   11 d          -2.465 202.951 121.176  0.00  0.00     0.002 A 
ENDBRANCH   4   7
ENDBRANCH   2   3
ENDBRANCH   1   2
BRANCH   1  21
ATOM     21  C14  11 d          -9.669 208.571 114.687  0.00  0.00     0.045 A 
ATOM     22  C15  11 d          -9.578 208.048 113.384  0.00  0.00     0.031 A 
ATOM     23  C16  11 d         -10.709 207.581 112.708  0.00  0.00     0.010 A 
ATOM     24  C17  11 d         -11.984 207.581 113.323  0.00  0.00    -0.049 A 
ATOM     25  C18  11 d         -13.233 206.994 112.626  0.00  0.00    -0.012 C 
ATOM     26  C28  11 d         -12.078 208.174 114.610  0.00  0.00     0.010 A 
ATOM     27  C19  11 d         -13.624 205.662 113.337  0.00  0.00     0.019 C 
ATOM     28  C23  11 d         -13.011 206.653 111.112  0.00  0.00     0.019 C 
ATOM     29  C26  11 d         -14.449 207.974 112.700  0.00  0.00     0.019 C 
ATOM     30  C20  11 d         -14.894 205.041 112.698  0.00  0.00    -0.013 C 
ATOM     31  C21  11 d         -14.634 204.734 111.205  0.00  0.00     0.009 C 
ATOM     32  C27  11 d         -16.069 206.040 112.813  0.00  0.00     0.009 C 
ATOM     33  C22  11 d         -14.276 206.043 110.467  0.00  0.00    -0.013 C 
ATOM     34  C24  11 d         -15.444 207.045 110.579  0.00  0.00     0.009 C 
ATOM     35  C25  11 d         -15.714 207.349 112.067  0.00  0.00    -0.013 C 
ATOM     36  C29  11 d         -10.944 208.675 115.274  0.00  0.00     0.031 A 
ENDBRANCH   1  21
BRANCH   1  37
ATOM     37  S1   11 d          -7.165 209.468 114.511  0.00  0.00     0.229 S 
ATOM     38  O2   11 d          -7.715 210.126 113.244  0.00  0.00    -0.206 OA
ATOM     39  O3   11 d          -6.217 208.361 114.042  0.00  0.00    -0.206 OA
ATOM     40  C30  11 d          -6.170 210.695 115.405  0.00  0.00     0.186 C 
ENDBRANCH   1  37
TORSDOF 5
ENDMDL
MODEL 6
REMARK VINA RESULT:     -10.3      2.617      8.192
REMARK  5 active torsions:
REMARK  status: ('A' for Active; 'I' for Inactive)
REMARK    1  A    between atoms: C2_2  and  N3_14 
REMARK       I    between atoms: N3_14  and  C12_15 
REMARK    2  A    between atoms: C12_15  and  C13_17 
REMARK    3  A    between atoms: C13_17  and  N4_18 
REMARK    4  A    between atoms: N4_18  and  C14_19 
REMARK    5  A    between atoms: N4_18  and  S1_35 
ROOT
ATOM      1  N4   11 d         -13.307 206.037 119.340  0.00  0.00    -0.267 N 
ENDROOT
BRANCH   1   2
ATOM      2  C13  11 d         -11.943 205.701 119.578  0.00  0.00     0.244 C 
BRANCH   2   3
ATOM      3  C12  11 d         -10.840 206.581 119.033  0.00  0.00     0.241 C 
ATOM      4  N3   11 d         -10.404 206.573 117.670  0.00  0.00    -0.319 N 
ATOM      5  H12  11 d         -10.903 205.890 117.006  0.00  0.00     0.169 HD
ATOM      6  O1   11 d         -10.285 207.358 119.879  0.00  0.00    -0.271 OA
BRANCH   4   7
ATOM      7  C2   11 d          -9.321 207.410 117.073  0.00  0.00     0.129 A 
ATOM      8  C1   11 d          -8.013 207.394 117.544  0.00  0.00     0.295 A 
ATOM      9  N2   11 d          -7.287 208.341 116.912  0.00  0.00    -0.217 N 
ATOM     10  O4   11 d          -7.596 206.689 118.499  0.00  0.00    -0.264 OA
ATOM     11  N1   11 d          -8.024 208.889 115.981  0.00  0.00    -0.289 N 
ATOM     12  C4   11 d          -5.946 208.729 117.256  0.00  0.00     0.060 A 
ATOM     13  C3   11 d          -9.294 208.383 116.046  0.00  0.00     0.057 A 
ATOM     14  C10  11 d          -7.559 209.905 115.020  0.00  0.00     0.178 C 
ATOM     15  C11  11 d         -10.332 208.673 114.994  0.00  0.00     0.072 C 
ATOM     16  C5   11 d          -4.837 207.997 116.799  0.00  0.00     0.031 A 
ATOM     17  C9   11 d          -5.744 209.901 118.007  0.00  0.00     0.031 A 
ATOM     18  C6   11 d          -3.535 208.438 117.089  0.00  0.00     0.002 A 
ATOM     19  C7   11 d          -3.339 209.610 117.837  0.00  0.00     0.000 A 
ATOM     20  C8   11 d          -4.444 210.340 118.299  0.00  0.00     0.002 A 
ENDBRANCH   4   7
ENDBRANCH   2   3
ENDBRANCH   1   2
BRANCH   1  21
ATOM     21  C14  11 d         -13.810 206.069 118.040  0.00  0.00     0.045 A 
ATOM     22  C15  11 d         -13.785 207.307 117.371  0.00  0.00     0.031 A 
ATOM     23  C16  11 d         -14.051 207.399 116.001  0.00  0.00     0.010 A 
ATOM     24  C17  11 d         -14.319 206.245 115.227  0.00  0.00    -0.049 A 
ATOM     25  C18  11 d         -14.534 206.313 113.698  0.00  0.00    -0.012 C 
ATOM     26  C28  11 d         -14.411 205.010 115.922  0.00  0.00     0.010 A 
ATOM     27  C19  11 d         -13.293 205.690 112.988  0.00  0.00     0.019 C 
ATOM     28  C23  11 d         -14.689 207.773 113.145  0.00  0.00     0.019 C 
ATOM     29  C26  11 d         -15.809 205.521 113.258  0.00  0.00     0.019 C 
ATOM     30  C20  11 d         -13.467 205.702 111.447  0.00  0.00    -0.013 C 
ATOM     31  C21  11 d         -13.629 207.157 110.948  0.00  0.00     0.009 C 
ATOM     32  C27  11 d         -14.728 204.893 111.065  0.00  0.00     0.009 C 
ATOM     33  C22  11 d         -14.873 207.791 111.611  0.00  0.00    -0.013 C 
ATOM     34  C24  11 d         -16.135 206.987 111.234  0.00  0.00     0.009 C 
ATOM     35  C25  11 d         -15.975 205.532 111.721  0.00  0.00    -0.013 C 
ATOM     36  C29  11 d         -14.177 204.926 117.307  0.00  0.00     0.031 A 
ENDBRANCH   1  21
BRANCH   1  37
ATOM     37  S1   11 d         -14.371 206.376 120.628  0.00  0.00     0.229 S 
ATOM     38  O2   11 d         -14.766 207.852 120.543  0.00  0.00    -0.206 OA
ATOM     39  O3   11 d         -13.649 206.202 121.966  0.00  0.00    -0.206 OA
ATOM     40  C30  11 d         -15.889 205.382 120.694  0.00  0.00     0.186 C 
ENDBRANCH   1  37
TORSDOF 5
ENDMDL
MODEL 7
REMARK VINA RESULT:     -10.1      2.971      7.703
REMARK  5 active torsions:
REMARK  status: ('A' for Active; 'I' for Inactive)
REMARK    1  A    between atoms: C2_2  and  N3_14 
REMARK       I    between atoms: N3_14  and  C12_15 
REMARK    2  A    between atoms: C12_15  and  C13_17 
REMARK    3  A    between atoms: C13_17  and  N4_18 
REMARK    4  A    between atoms: N4_18  and  C14_19 
REMARK    5  A    between atoms: N4_18  and  S1_35 
ROOT
ATOM      1  N4   11 d         -13.799 205.420 121.165  0.00  0.00    -0.267 N 
ENDROOT
BRANCH   1   2
ATOM      2  C13  11 d         -12.645 204.679 121.553  0.00  0.00     0.244 C 
BRANCH   2   3
ATOM      3  C12  11 d         -11.305 205.370 121.670  0.00  0.00     0.241 C 
ATOM      4  N3   11 d         -10.360 205.479 120.601  0.00  0.00    -0.319 N 
ATOM      5  H12  11 d         -10.637 205.033 119.663  0.00  0.00     0.169 HD
ATOM      6  O1   11 d         -11.038 205.867 122.815  0.00  0.00    -0.271 OA
BRANCH   4   7
ATOM      7  C2   11 d          -9.023 206.142 120.654  0.00  0.00     0.129 A 
ATOM      8  C1   11 d          -8.812 207.443 120.210  0.00  0.00     0.295 A 
ATOM      9  N2   11 d          -7.493 207.732 120.249  0.00  0.00    -0.217 N 
ATOM     10  O4   11 d          -9.698 208.197 119.729  0.00  0.00    -0.264 OA
ATOM     11  N1   11 d          -6.857 206.731 120.799  0.00  0.00    -0.289 N 
ATOM     12  C4   11 d          -6.885 208.917 119.709  0.00  0.00     0.060 A 
ATOM     13  C3   11 d          -7.734 205.710 121.044  0.00  0.00     0.057 A 
ATOM     14  C10  11 d          -5.413 206.705 121.097  0.00  0.00     0.178 C 
ATOM     15  C11  11 d          -7.350 204.490 121.841  0.00  0.00     0.072 C 
ATOM     16  C5   11 d          -6.866 210.120 120.435  0.00  0.00     0.031 A 
ATOM     17  C9   11 d          -6.239 208.847 118.461  0.00  0.00     0.031 A 
ATOM     18  C6   11 d          -6.202 211.245 119.915  0.00  0.00     0.002 A 
ATOM     19  C7   11 d          -5.558 211.169 118.670  0.00  0.00     0.000 A 
ATOM     20  C8   11 d          -5.578 209.970 117.941  0.00  0.00     0.002 A 
ENDBRANCH   4   7
ENDBRANCH   2   3
ENDBRANCH   1   2
BRANCH   1  21
ATOM     21  C14  11 d         -14.067 205.655 119.817  0.00  0.00     0.045 A 
ATOM     22  C15  11 d         -13.847 206.959 119.335  0.00  0.00     0.031 A 
ATOM     23  C16  11 d         -13.867 207.241 117.966  0.00  0.00     0.010 A 
ATOM     24  C17  11 d         -14.070 206.218 117.009  0.00  0.00    -0.049 A 
ATOM     25  C18  11 d         -14.013 206.492 115.489  0.00  0.00    -0.012 C 
ATOM     26  C28  11 d         -14.360 204.920 117.506  0.00  0.00     0.010 A 
ATOM     27  C19  11 d         -12.711 205.857 114.913  0.00  0.00     0.019 C 
ATOM     28  C23  11 d         -13.977 208.016 115.121  0.00  0.00     0.019 C 
ATOM     29  C26  11 d         -15.241 205.872 114.744  0.00  0.00     0.019 C 
ATOM     30  C20  11 d         -12.615 206.073 113.380  0.00  0.00    -0.013 C 
ATOM     31  C21  11 d         -12.595 207.587 113.064  0.00  0.00     0.009 C 
ATOM     32  C27  11 d         -13.840 205.428 112.692  0.00  0.00     0.009 C 
ATOM     33  C22  11 d         -13.892 208.239 113.595  0.00  0.00    -0.013 C 
ATOM     34  C24  11 d         -15.118 207.598 112.912  0.00  0.00     0.009 C 
ATOM     35  C25  11 d         -15.139 206.086 113.217  0.00  0.00    -0.013 C 
ATOM     36  C29  11 d         -14.374 204.646 118.886  0.00  0.00     0.031 A 
ENDBRANCH   1  21
BRANCH   1  37
ATOM     37  S1   11 d         -14.900 206.011 122.324  0.00  0.00     0.229 S 
ATOM     38  O2   11 d         -16.051 206.693 121.582  0.00  0.00    -0.206 OA
ATOM     39  O3   11 d         -14.235 207.096 123.174  0.00  0.00    -0.206 OA
ATOM     40  C30  11 d         -15.602 204.781 123.460  0.00  0.00     0.186 C 
ENDBRANCH   1  37
TORSDOF 5
ENDMDL
MODEL 8
REMARK VINA RESULT:     -10.1      6.041      8.420
REMARK  5 active torsions:
REMARK  status: ('A' for Active; 'I' for Inactive)
REMARK    1  A    between atoms: C2_2  and  N3_14 
REMARK       I    between atoms: N3_14  and  C12_15 
REMARK    2  A    between atoms: C12_15  and  C13_17 
REMARK    3  A    between atoms: C13_17  and  N4_18 
REMARK    4  A    between atoms: N4_18  and  C14_19 
REMARK    5  A    between atoms: N4_18  and  S1_35 
ROOT
ATOM      1  N4   11 d          -8.844 208.854 115.664  0.00  0.00    -0.267 N 
ENDROOT
BRANCH   1   2
ATOM      2  C13  11 d          -8.898 208.722 117.082  0.00  0.00     0.244 C 
BRANCH   2   3
ATOM      3  C12  11 d          -7.734 208.110 117.831  0.00  0.00     0.241 C 
ATOM      4  N3   11 d          -7.196 206.813 117.559  0.00  0.00    -0.319 N 
ATOM      5  H12  11 d          -7.663 206.251 116.770  0.00  0.00     0.169 HD
ATOM      6  O1   11 d          -7.237 208.829 118.760  0.00  0.00    -0.271 OA
BRANCH   4   7
ATOM      7  C2   11 d          -6.056 206.153 118.262  0.00  0.00     0.129 A 
ATOM      8  C1   11 d          -6.230 205.340 119.377  0.00  0.00     0.295 A 
ATOM      9  N2   11 d          -5.028 204.992 119.883  0.00  0.00    -0.217 N 
ATOM     10  O4   11 d          -7.339 205.067 119.907  0.00  0.00    -0.264 OA
ATOM     11  N1   11 d          -4.089 205.442 119.092  0.00  0.00    -0.289 N 
ATOM     12  C4   11 d          -4.817 204.301 121.126  0.00  0.00     0.060 A 
ATOM     13  C3   11 d          -4.652 206.189 118.093  0.00  0.00     0.057 A 
ATOM     14  C10  11 d          -2.646 205.193 119.261  0.00  0.00     0.178 C 
ATOM     15  C11  11 d          -3.857 206.692 116.916  0.00  0.00     0.072 C 
ATOM     16  C5   11 d          -4.922 202.902 121.208  0.00  0.00     0.031 A 
ATOM     17  C9   11 d          -4.432 205.037 122.261  0.00  0.00     0.031 A 
ATOM     18  C6   11 d          -4.640 202.245 122.418  0.00  0.00     0.002 A 
ATOM     19  C7   11 d          -4.255 202.984 123.547  0.00  0.00     0.000 A 
ATOM     20  C8   11 d          -4.153 204.382 123.470  0.00  0.00     0.002 A 
ENDBRANCH   4   7
ENDBRANCH   2   3
ENDBRANCH   1   2
BRANCH   1  21
ATOM     21  C14  11 d          -9.979 208.617 114.890  0.00  0.00     0.045 A 
ATOM     22  C15  11 d          -9.777 208.126 113.586  0.00  0.00     0.031 A 
ATOM     23  C16  11 d         -10.841 207.646 112.817  0.00  0.00     0.010 A 
ATOM     24  C17  11 d         -12.158 207.599 113.335  0.00  0.00    -0.049 A 
ATOM     25  C18  11 d         -13.334 206.995 112.534  0.00  0.00    -0.012 C 
ATOM     26  C28  11 d         -12.363 208.159 114.623  0.00  0.00     0.010 A 
ATOM     27  C19  11 d         -13.741 205.637 113.185  0.00  0.00     0.019 C 
ATOM     28  C23  11 d         -12.991 206.695 111.034  0.00  0.00     0.019 C 
ATOM     29  C26  11 d         -14.580 207.941 112.537  0.00  0.00     0.019 C 
ATOM     30  C20  11 d         -14.942 204.999 112.441  0.00  0.00    -0.013 C 
ATOM     31  C21  11 d         -14.563 204.733 110.965  0.00  0.00     0.009 C 
ATOM     32  C27  11 d         -16.149 205.964 112.488  0.00  0.00     0.009 C 
ATOM     33  C22  11 d         -14.187 206.068 110.283  0.00  0.00    -0.013 C 
ATOM     34  C24  11 d         -15.388 207.036 110.328  0.00  0.00     0.009 C 
ATOM     35  C25  11 d         -15.776 207.298 111.798  0.00  0.00    -0.013 C 
ATOM     36  C29  11 d         -11.296 208.674 115.381  0.00  0.00     0.031 A 
ENDBRANCH   1  21
BRANCH   1  37
ATOM     37  S1   11 d          -7.412 209.334 114.875  0.00  0.00     0.229 S 
ATOM     38  O2   11 d          -7.798 210.031 113.569  0.00  0.00    -0.206 OA
ATOM     39  O3   11 d          -6.593 208.103 114.478  0.00  0.00    -0.206 OA
ATOM     40  C30  11 d          -6.317 210.440 115.810  0.00  0.00     0.186 C 
ENDBRANCH   1  37
TORSDOF 5
ENDMDL
MODEL 9
REMARK VINA RESULT:      -9.8      5.295     10.847
REMARK  5 active torsions:
REMARK  status: ('A' for Active; 'I' for Inactive)
REMARK    1  A    between atoms: C2_2  and  N3_14 
REMARK       I    between atoms: N3_14  and  C12_15 
REMARK    2  A    between atoms: C12_15  and  C13_17 
REMARK    3  A    between atoms: C13_17  and  N4_18 
REMARK    4  A    between atoms: N4_18  and  C14_19 
REMARK    5  A    between atoms: N4_18  and  S1_35 
ROOT
ATOM      1  N4   11 d          -9.263 207.956 119.527  0.00  0.00    -0.267 N 
ENDROOT
BRANCH   1   2
ATOM      2  C13  11 d         -10.375 208.474 118.802  0.00  0.00     0.244 C 
BRANCH   2   3
ATOM      3  C12  11 d         -10.656 207.989 117.397  0.00  0.00     0.241 C 
ATOM      4  N3   11 d         -11.203 208.807 116.358  0.00  0.00    -0.319 N 
ATOM      5  H12  11 d         -11.424 209.828 116.612  0.00  0.00     0.169 HD
ATOM      6  O1   11 d         -10.380 206.764 117.171  0.00  0.00    -0.271 OA
BRANCH   4   7
ATOM      7  C2   11 d         -11.507 208.388 114.957  0.00  0.00     0.129 A 
ATOM      8  C1   11 d         -12.783 208.022 114.543  0.00  0.00     0.295 A 
ATOM      9  N2   11 d         -12.739 207.564 113.274  0.00  0.00    -0.217 N 
ATOM     10  O4   11 d         -13.806 208.006 115.277  0.00  0.00    -0.264 OA
ATOM     11  N1   11 d         -11.526 207.719 112.810  0.00  0.00    -0.289 N 
ATOM     12  C4   11 d         -13.831 206.942 112.575  0.00  0.00     0.060 A 
ATOM     13  C3   11 d         -10.713 208.193 113.803  0.00  0.00     0.057 A 
ATOM     14  C10  11 d         -11.101 207.416 111.431  0.00  0.00     0.178 C 
ATOM     15  C11  11 d          -9.303 208.652 113.540  0.00  0.00     0.072 C 
ATOM     16  C5   11 d         -14.824 207.712 111.946  0.00  0.00     0.031 A 
ATOM     17  C9   11 d         -13.863 205.540 112.465  0.00  0.00     0.031 A 
ATOM     18  C6   11 d         -15.841 207.081 111.209  0.00  0.00     0.002 A 
ATOM     19  C7   11 d         -15.867 205.681 111.100  0.00  0.00     0.000 A 
ATOM     20  C8   11 d         -14.879 204.910 111.731  0.00  0.00     0.002 A 
ENDBRANCH   4   7
ENDBRANCH   2   3
ENDBRANCH   1   2
BRANCH   1  21
ATOM     21  C14  11 d          -8.068 208.671 119.594  0.00  0.00     0.045 A 
ATOM     22  C15  11 d          -8.036 209.792 120.443  0.00  0.00     0.031 A 
ATOM     23  C16  11 d          -6.834 210.436 120.753  0.00  0.00     0.010 A 
ATOM     24  C17  11 d          -5.598 209.960 120.255  0.00  0.00    -0.049 A 
ATOM     25  C18  11 d          -4.250 210.604 120.651  0.00  0.00    -0.012 C 
ATOM     26  C28  11 d          -5.647 208.872 119.344  0.00  0.00     0.010 A 
ATOM     27  C19  11 d          -3.486 209.629 121.599  0.00  0.00     0.019 C 
ATOM     28  C23  11 d          -4.399 211.962 121.421  0.00  0.00     0.019 C 
ATOM     29  C26  11 d          -3.355 210.886 119.400  0.00  0.00     0.019 C 
ATOM     30  C20  11 d          -2.107 210.211 122.005  0.00  0.00    -0.013 C 
ATOM     31  C21  11 d          -2.302 211.553 122.748  0.00  0.00     0.009 C 
ATOM     32  C27  11 d          -1.257 210.453 120.736  0.00  0.00     0.009 C 
ATOM     33  C22  11 d          -3.028 212.552 121.820  0.00  0.00    -0.013 C 
ATOM     34  C24  11 d          -2.185 212.798 120.551  0.00  0.00     0.009 C 
ATOM     35  C25  11 d          -1.979 211.460 119.810  0.00  0.00    -0.013 C 
ATOM     36  C29  11 d          -6.861 208.248 119.007  0.00  0.00     0.031 A 
ENDBRANCH   1  21
BRANCH   1  37
ATOM     37  S1   11 d          -9.365 206.471 120.358  0.00  0.00     0.229 S 
ATOM     38  O2   11 d          -8.452 205.467 119.653  0.00  0.00    -0.206 OA
ATOM     39  O3   11 d         -10.784 205.907 120.254  0.00  0.00    -0.206 OA
ATOM     40  C30  11 d          -8.921 206.509 122.118  0.00  0.00     0.186 C 
ENDBRANCH   1  37
TORSDOF 5
ENDMDL
MODEL 10
REMARK VINA RESULT:      -9.8      1.740      2.491
REMARK  5 active torsions:
REMARK  status: ('A' for Active; 'I' for Inactive)
REMARK    1  A    between atoms: C2_2  and  N3_14 
REMARK       I    between atoms: N3_14  and  C12_15 
REMARK    2  A    between atoms: C12_15  and  C13_17 
REMARK    3  A    between atoms: C13_17  and  N4_18 
REMARK    4  A    between atoms: N4_18  and  C14_19 
REMARK    5  A    between atoms: N4_18  and  S1_35 
ROOT
ATOM      1  N4   11 d         -10.124 207.446 117.518  0.00  0.00    -0.267 N 
ENDROOT
BRANCH   1   2
ATOM      2  C13  11 d         -10.359 207.196 118.901  0.00  0.00     0.244 C 
BRANCH   2   3
ATOM      3  C12  11 d         -11.526 206.334 119.329  0.00  0.00     0.241 C 
ATOM      4  N3   11 d         -12.899 206.682 119.127  0.00  0.00    -0.319 N 
ATOM      5  H12  11 d         -13.095 207.621 118.642  0.00  0.00     0.169 HD
ATOM      6  O1   11 d         -11.220 205.239 119.908  0.00  0.00    -0.271 OA
BRANCH   4   7
ATOM      7  C2   11 d         -14.093 205.879 119.529  0.00  0.00     0.129 A 
ATOM      8  C1   11 d         -14.909 206.229 120.599  0.00  0.00     0.295 A 
ATOM      9  N2   11 d         -15.823 205.259 120.815  0.00  0.00    -0.217 N 
ATOM     10  O4   11 d         -14.746 207.238 121.333  0.00  0.00    -0.264 OA
ATOM     11  N1   11 d         -15.714 204.357 119.875  0.00  0.00    -0.289 N 
ATOM     12  C4   11 d         -16.719 205.196 121.938  0.00  0.00     0.060 A 
ATOM     13  C3   11 d         -14.651 204.663 119.069  0.00  0.00     0.057 A 
ATOM     14  C10  11 d         -16.594 203.186 119.717  0.00  0.00     0.178 C 
ATOM     15  C11  11 d         -14.373 203.924 117.786  0.00  0.00     0.072 C 
ATOM     16  C5   11 d         -17.923 205.919 121.948  0.00  0.00     0.031 A 
ATOM     17  C9   11 d         -16.412 204.340 123.011  0.00  0.00     0.031 A 
ATOM     18  C6   11 d         -18.817 205.784 123.025  0.00  0.00     0.002 A 
ATOM     19  C7   11 d         -18.506 204.927 124.093  0.00  0.00     0.000 A 
ATOM     20  C8   11 d         -17.302 204.207 124.087  0.00  0.00     0.002 A 
ENDBRANCH   4   7
ENDBRANCH   2   3
ENDBRANCH   1   2
BRANCH   1  21
ATOM     21  C14  11 d         -11.094 207.127 116.568  0.00  0.00     0.045 A 
ATOM     22  C15  11 d         -11.871 208.186 116.062  0.00  0.00     0.031 A 
ATOM     23  C16  11 d         -12.704 208.010 114.953  0.00  0.00     0.010 A 
ATOM     24  C17  11 d         -12.769 206.771 114.273  0.00  0.00    -0.049 A 
ATOM     25  C18  11 d         -13.618 206.578 112.996  0.00  0.00    -0.012 C 
ATOM     26  C28  11 d         -12.035 205.691 114.832  0.00  0.00     0.010 A 
ATOM     27  C19  11 d         -12.662 206.444 111.772  0.00  0.00     0.019 C 
ATOM     28  C23  11 d         -14.584 207.775 112.691  0.00  0.00     0.019 C 
ATOM     29  C26  11 d         -14.502 205.290 113.081  0.00  0.00     0.019 C 
ATOM     30  C20  11 d         -13.460 206.216 110.462  0.00  0.00    -0.013 C 
ATOM     31  C21  11 d         -14.406 207.413 110.208  0.00  0.00     0.009 C 
ATOM     32  C27  11 d         -14.301 204.924 110.590  0.00  0.00     0.009 C 
ATOM     33  C22  11 d         -15.389 207.550 111.392  0.00  0.00    -0.013 C 
ATOM     34  C24  11 d         -16.231 206.263 111.526  0.00  0.00     0.009 C 
ATOM     35  C25  11 d         -15.292 205.064 111.771  0.00  0.00    -0.013 C 
ATOM     36  C29  11 d         -11.225 205.861 115.969  0.00  0.00     0.031 A 
ENDBRANCH   1  21
BRANCH   1  37
ATOM     37  S1   11 d          -8.675 208.167 116.985  0.00  0.00     0.229 S 
ATOM     38  O2   11 d          -7.565 207.116 117.057  0.00  0.00    -0.206 OA
ATOM     39  O3   11 d          -8.264 209.290 117.941  0.00  0.00    -0.206 OA
ATOM     40  C30  11 d          -8.697 208.859 115.307  0.00  0.00     0.186 C 
ENDBRANCH   1  37
TORSDOF 5
ENDMDL
