MODEL 1
REMARK VINA RESULT:      -8.2      0.000      0.000
REMARK  2 active torsions:
REMARK  status: ('A' for Active; 'I' for Inactive)
REMARK    1  A    between atoms: C1_1  and  C2_2 
REMARK    2  A    between atoms: C1_1  and  O3_31 
ROOT
ATOM      1  C2   11 d         -10.107 206.943 118.772  0.00  0.00     0.039 A 
ATOM      2  C3   11 d          -9.173 206.266 119.582  0.00  0.00     0.018 A 
ATOM      3  C4   11 d          -7.803 206.316 119.286  0.00  0.00     0.010 A 
ATOM      4  C5   11 d          -7.320 207.044 118.175  0.00  0.00    -0.031 A 
ATOM      5  C6   11 d          -5.802 207.092 117.937  0.00  0.00     0.154 C 
ATOM      6  C7   11 d          -5.331 208.087 116.838  0.00  0.00     0.037 C 
ATOM      7  C8   11 d          -5.688 209.546 117.039  0.00  0.00     0.160 C 
ATOM      8  O1   11 d          -6.337 209.906 118.054  0.00  0.00    -0.293 OA
ATOM      9  C9   11 d          -5.382 210.584 115.985  0.00  0.00     0.093 C 
ATOM     10  C10  11 d          -5.304 209.971 114.570  0.00  0.00     0.031 C 
ATOM     11  C11  11 d          -6.636 209.569 113.915  0.00  0.00    -0.053 A 
ATOM     12  C12  11 d          -6.630 208.834 112.705  0.00  0.00     0.007 A 
ATOM     13  C13  11 d          -7.826 208.400 112.110  0.00  0.00     0.001 A 
ATOM     14  C14  11 d          -9.056 208.705 112.703  0.00  0.00     0.000 A 
ATOM     15  C15  11 d          -9.091 209.451 113.886  0.00  0.00     0.001 A 
ATOM     16  C16  11 d          -7.897 209.882 114.484  0.00  0.00     0.007 A 
ATOM     17  C17  11 d          -4.269 208.826 114.665  0.00  0.00     0.067 C 
ATOM     18  C18  11 d          -4.572 207.775 115.726  0.00  0.00     0.022 C 
ATOM     19  N1   11 d          -4.025 206.525 115.448  0.00  0.00    -0.357 N 
ATOM     20  C19  11 d          -3.387 205.775 116.415  0.00  0.00     0.059 A 
ATOM     21  C20  11 d          -4.054 205.409 117.595  0.00  0.00     0.055 A 
ATOM     22  C21  11 d          -3.401 204.627 118.563  0.00  0.00     0.031 A 
ATOM     23  C22  11 d          -2.073 204.222 118.360  0.00  0.00     0.002 A 
ATOM     24  C23  11 d          -1.403 204.583 117.181  0.00  0.00     0.002 A 
ATOM     25  C24  11 d          -2.061 205.352 116.208  0.00  0.00     0.032 A 
ATOM     26  N2   11 d          -5.376 205.745 117.746  0.00  0.00    -0.375 N 
ATOM     27  C25  11 d          -8.267 207.685 117.349  0.00  0.00     0.010 A 
ATOM     28  C26  11 d          -9.637 207.643 117.644  0.00  0.00     0.018 A 
ATOM     29  H14  11 d          -4.070 206.161 114.523  0.00  0.00     0.166 HD
ATOM     30  H19  11 d          -6.029 204.992 117.716  0.00  0.00     0.160 HD
ENDROOT
BRANCH   1  31
ATOM     31  C1   11 d         -11.560 206.924 119.095  0.00  0.00     0.292 C 
ATOM     32  O2   11 d         -12.019 206.091 119.920  0.00  0.00    -0.259 OA
BRANCH  31  33
ATOM     33  O3   11 d         -12.436 207.907 118.550  0.00  0.00    -0.323 OA
ATOM     34  C27  11 d         -13.418 207.276 117.694  0.00  0.00     0.213 C 
ENDBRANCH  31  33
ENDBRANCH   1  31
TORSDOF 2
ENDMDL
MODEL 2
REMARK VINA RESULT:      -8.1      1.209      1.644
REMARK  2 active torsions:
REMARK  status: ('A' for Active; 'I' for Inactive)
REMARK    1  A    between atoms: C1_1  and  C2_2 
REMARK    2  A    between atoms: C1_1  and  O3_31 
ROOT
ATOM      1  C2   11 d         -10.851 207.336 118.203  0.00  0.00     0.039 A 
ATOM      2  C3   11 d         -10.367 206.497 119.226  0.00  0.00     0.018 A 
ATOM      3  C4   11 d          -8.988 206.316 119.407  0.00  0.00     0.010 A 
ATOM      4  C5   11 d          -8.049 206.967 118.577  0.00  0.00    -0.031 A 
ATOM      5  C6   11 d          -6.553 206.757 118.862  0.00  0.00     0.154 C 
ATOM      6  C7   11 d          -5.586 207.674 118.058  0.00  0.00     0.037 C 
ATOM      7  C8   11 d          -5.757 209.169 118.235  0.00  0.00     0.160 C 
ATOM      8  O1   11 d          -6.649 209.620 118.999  0.00  0.00    -0.293 OA
ATOM      9  C9   11 d          -4.953 210.155 117.422  0.00  0.00     0.093 C 
ATOM     10  C10  11 d          -4.494 209.560 116.073  0.00  0.00     0.031 C 
ATOM     11  C11  11 d          -5.569 209.402 114.984  0.00  0.00    -0.053 A 
ATOM     12  C12  11 d          -5.266 208.696 113.794  0.00  0.00     0.007 A 
ATOM     13  C13  11 d          -6.240 208.483 112.806  0.00  0.00     0.001 A 
ATOM     14  C14  11 d          -7.534 208.985 112.976  0.00  0.00     0.000 A 
ATOM     15  C15  11 d          -7.854 209.708 114.130  0.00  0.00     0.001 A 
ATOM     16  C16  11 d          -6.883 209.919 115.121  0.00  0.00     0.007 A 
ATOM     17  C17  11 d          -3.746 208.253 116.423  0.00  0.00     0.067 C 
ATOM     18  C18  11 d          -4.552 207.253 117.244  0.00  0.00     0.022 C 
ATOM     19  N1   11 d          -4.146 205.932 117.073  0.00  0.00    -0.357 N 
ATOM     20  C19  11 d          -4.001 205.069 118.140  0.00  0.00     0.059 A 
ATOM     21  C20  11 d          -5.078 204.805 119.000  0.00  0.00     0.055 A 
ATOM     22  C21  11 d          -4.925 203.907 120.071  0.00  0.00     0.031 A 
ATOM     23  C22  11 d          -3.688 203.284 120.293  0.00  0.00     0.002 A 
ATOM     24  C23  11 d          -2.608 203.543 119.434  0.00  0.00     0.002 A 
ATOM     25  C24  11 d          -2.767 204.428 118.356  0.00  0.00     0.032 A 
ATOM     26  N2   11 d          -6.303 205.360 118.727  0.00  0.00    -0.375 N 
ATOM     27  C25  11 d          -8.545 207.774 117.532  0.00  0.00     0.010 A 
ATOM     28  C26  11 d          -9.922 207.962 117.349  0.00  0.00     0.018 A 
ATOM     29  H14  11 d          -3.929 205.596 116.162  0.00  0.00     0.166 HD
ATOM     30  H19  11 d          -7.016 204.731 118.426  0.00  0.00     0.160 HD
ENDROOT
BRANCH   1  31
ATOM     31  C1   11 d         -12.312 207.562 118.021  0.00  0.00     0.292 C 
ATOM     32  O2   11 d         -13.079 207.605 119.018  0.00  0.00    -0.259 OA
BRANCH  31  33
ATOM     33  O3   11 d         -12.848 207.829 116.728  0.00  0.00    -0.323 OA
ATOM     34  C27  11 d         -14.146 207.203 116.591  0.00  0.00     0.213 C 
ENDBRANCH  31  33
ENDBRANCH   1  31
TORSDOF 2
ENDMDL
MODEL 3
REMARK VINA RESULT:      -7.9     11.766     15.781
REMARK  2 active torsions:
REMARK  status: ('A' for Active; 'I' for Inactive)
REMARK    1  A    between atoms: C1_1  and  C2_2 
REMARK    2  A    between atoms: C1_1  and  O3_31 
ROOT
ATOM      1  C2   11 d         -18.807 203.206 119.196  0.00  0.00     0.039 A 
ATOM      2  C3   11 d         -20.175 203.016 119.475  0.00  0.00     0.018 A 
ATOM      3  C4   11 d         -20.661 203.152 120.784  0.00  0.00     0.010 A 
ATOM      4  C5   11 d         -19.799 203.483 121.854  0.00  0.00    -0.031 A 
ATOM      5  C6   11 d         -20.409 203.658 123.255  0.00  0.00     0.154 C 
ATOM      6  C7   11 d         -19.448 204.238 124.332  0.00  0.00     0.037 C 
ATOM      7  C8   11 d         -18.848 205.601 124.051  0.00  0.00     0.160 C 
ATOM      8  O1   11 d         -19.129 206.211 122.987  0.00  0.00    -0.293 OA
ATOM      9  C9   11 d         -17.816 206.211 124.970  0.00  0.00     0.093 C 
ATOM     10  C10  11 d         -17.027 205.140 125.752  0.00  0.00     0.031 C 
ATOM     11  C11  11 d         -15.979 204.337 124.963  0.00  0.00    -0.053 A 
ATOM     12  C12  11 d         -15.352 203.218 125.563  0.00  0.00     0.007 A 
ATOM     13  C13  11 d         -14.435 202.428 124.852  0.00  0.00     0.001 A 
ATOM     14  C14  11 d         -14.110 202.748 123.530  0.00  0.00     0.000 A 
ATOM     15  C15  11 d         -14.696 203.863 122.920  0.00  0.00     0.001 A 
ATOM     16  C16  11 d         -15.616 204.652 123.628  0.00  0.00     0.007 A 
ATOM     17  C17  11 d         -18.090 204.272 126.465  0.00  0.00     0.067 C 
ATOM     18  C18  11 d         -19.134 203.652 125.544  0.00  0.00     0.022 C 
ATOM     19  N1   11 d         -19.696 202.480 126.044  0.00  0.00    -0.357 N 
ATOM     20  C19  11 d         -21.053 202.239 125.985  0.00  0.00     0.059 A 
ATOM     21  C20  11 d         -21.729 202.240 124.754  0.00  0.00     0.055 A 
ATOM     22  C21  11 d         -23.108 201.971 124.704  0.00  0.00     0.031 A 
ATOM     23  C22  11 d         -23.818 201.716 125.888  0.00  0.00     0.002 A 
ATOM     24  C23  11 d         -23.145 201.712 127.120  0.00  0.00     0.002 A 
ATOM     25  C24  11 d         -21.766 201.966 127.167  0.00  0.00     0.032 A 
ATOM     26  N2   11 d         -21.011 202.413 123.598  0.00  0.00    -0.375 N 
ATOM     27  C25  11 d         -18.426 203.631 121.569  0.00  0.00     0.010 A 
ATOM     28  C26  11 d         -17.936 203.502 120.262  0.00  0.00     0.018 A 
ATOM     29  H14  11 d         -19.114 201.800 126.479  0.00  0.00     0.166 HD
ATOM     30  H19  11 d         -20.931 201.615 123.004  0.00  0.00     0.160 HD
ENDROOT
BRANCH   1  31
ATOM     31  C1   11 d         -18.284 203.097 117.806  0.00  0.00     0.292 C 
ATOM     32  O2   11 d         -19.077 203.009 116.832  0.00  0.00    -0.259 OA
BRANCH  31  33
ATOM     33  O3   11 d         -16.885 203.186 117.549  0.00  0.00    -0.323 OA
ATOM     34  C27  11 d         -16.295 201.864 117.553  0.00  0.00     0.213 C 
ENDBRANCH  31  33
ENDBRANCH   1  31
TORSDOF 2
ENDMDL
MODEL 4
REMARK VINA RESULT:      -7.6      2.863      7.834
REMARK  2 active torsions:
REMARK  status: ('A' for Active; 'I' for Inactive)
REMARK    1  A    between atoms: C1_1  and  C2_2 
REMARK    2  A    between atoms: C1_1  and  O3_31 
ROOT
ATOM      1  C2   11 d          -4.747 208.127 112.658  0.00  0.00     0.039 A 
ATOM      2  C3   11 d          -5.961 208.703 112.235  0.00  0.00     0.018 A 
ATOM      3  C4   11 d          -7.022 208.874 113.136  0.00  0.00     0.010 A 
ATOM      4  C5   11 d          -6.905 208.480 114.488  0.00  0.00    -0.031 A 
ATOM      5  C6   11 d          -8.093 208.739 115.429  0.00  0.00     0.154 C 
ATOM      6  C7   11 d          -7.813 208.487 116.939  0.00  0.00     0.037 C 
ATOM      7  C8   11 d          -6.698 209.295 117.571  0.00  0.00     0.160 C 
ATOM      8  O1   11 d          -6.044 210.120 116.884  0.00  0.00    -0.293 OA
ATOM      9  C9   11 d          -6.263 209.054 118.998  0.00  0.00     0.093 C 
ATOM     10  C10  11 d          -6.567 207.614 119.464  0.00  0.00     0.031 C 
ATOM     11  C11  11 d          -5.664 206.501 118.908  0.00  0.00    -0.053 A 
ATOM     12  C12  11 d          -5.995 205.144 119.141  0.00  0.00     0.007 A 
ATOM     13  C13  11 d          -5.226 204.103 118.598  0.00  0.00     0.001 A 
ATOM     14  C14  11 d          -4.098 204.392 117.824  0.00  0.00     0.000 A 
ATOM     15  C15  11 d          -3.734 205.724 117.598  0.00  0.00     0.001 A 
ATOM     16  C16  11 d          -4.504 206.767 118.136  0.00  0.00     0.007 A 
ATOM     17  C17  11 d          -8.077 207.399 119.207  0.00  0.00     0.067 C 
ATOM     18  C18  11 d          -8.522 207.639 117.769  0.00  0.00     0.022 C 
ATOM     19  N1   11 d          -9.665 206.929 117.411  0.00  0.00    -0.357 N 
ATOM     20  C19  11 d         -10.694 207.512 116.700  0.00  0.00     0.059 A 
ATOM     21  C20  11 d         -10.457 208.095 115.445  0.00  0.00     0.055 A 
ATOM     22  C21  11 d         -11.517 208.667 114.719  0.00  0.00     0.031 A 
ATOM     23  C22  11 d         -12.814 208.670 115.255  0.00  0.00     0.002 A 
ATOM     24  C23  11 d         -13.055 208.085 116.508  0.00  0.00     0.002 A 
ATOM     25  C24  11 d         -11.999 207.501 117.225  0.00  0.00     0.032 A 
ATOM     26  N2   11 d          -9.201 208.017 114.898  0.00  0.00    -0.375 N 
ATOM     27  C25  11 d          -5.700 207.869 114.891  0.00  0.00     0.010 A 
ATOM     28  C26  11 d          -4.634 207.700 113.996  0.00  0.00     0.018 A 
ATOM     29  H14  11 d          -9.764 205.979 117.691  0.00  0.00     0.166 HD
ATOM     30  H19  11 d          -9.102 207.424 114.102  0.00  0.00     0.160 HD
ENDROOT
BRANCH   1  31
ATOM     31  C1   11 d          -3.602 207.969 111.719  0.00  0.00     0.292 C 
ATOM     32  O2   11 d          -3.798 207.931 110.477  0.00  0.00    -0.259 OA
BRANCH  31  33
ATOM     33  O3   11 d          -2.263 207.956 112.206  0.00  0.00    -0.323 OA
ATOM     34  C27  11 d          -1.515 209.053 111.628  0.00  0.00     0.213 C 
ENDBRANCH  31  33
ENDBRANCH   1  31
TORSDOF 2
ENDMDL
MODEL 5
REMARK VINA RESULT:      -7.4      3.081      6.330
REMARK  2 active torsions:
REMARK  status: ('A' for Active; 'I' for Inactive)
REMARK    1  A    between atoms: C1_1  and  C2_2 
REMARK    2  A    between atoms: C1_1  and  O3_31 
ROOT
ATOM      1  C2   11 d          -6.547 209.610 121.431  0.00  0.00     0.039 A 
ATOM      2  C3   11 d          -7.740 209.733 120.692  0.00  0.00     0.018 A 
ATOM      3  C4   11 d          -7.822 209.236 119.383  0.00  0.00     0.010 A 
ATOM      4  C5   11 d          -6.719 208.601 118.770  0.00  0.00    -0.031 A 
ATOM      5  C6   11 d          -6.895 208.042 117.349  0.00  0.00     0.154 C 
ATOM      6  C7   11 d          -5.721 207.164 116.828  0.00  0.00     0.037 C 
ATOM      7  C8   11 d          -5.379 205.930 117.637  0.00  0.00     0.160 C 
ATOM      8  O1   11 d          -6.029 205.653 118.678  0.00  0.00    -0.293 OA
ATOM      9  C9   11 d          -4.188 205.066 117.291  0.00  0.00     0.093 C 
ATOM     10  C10  11 d          -3.093 205.858 116.544  0.00  0.00     0.031 C 
ATOM     11  C11  11 d          -2.253 206.836 117.381  0.00  0.00    -0.053 A 
ATOM     12  C12  11 d          -1.361 207.728 116.735  0.00  0.00     0.007 A 
ATOM     13  C13  11 d          -0.623 208.674 117.463  0.00  0.00     0.001 A 
ATOM     14  C14  11 d          -0.745 208.740 118.855  0.00  0.00     0.000 A 
ATOM     15  C15  11 d          -1.600 207.855 119.521  0.00  0.00     0.001 A 
ATOM     16  C16  11 d          -2.342 206.911 118.794  0.00  0.00     0.007 A 
ATOM     17  C17  11 d          -3.797 206.501 115.326  0.00  0.00     0.067 C 
ATOM     18  C18  11 d          -4.998 207.374 115.668  0.00  0.00     0.022 C 
ATOM     19  N1   11 d          -5.259 208.363 114.723  0.00  0.00    -0.357 N 
ATOM     20  C19  11 d          -6.538 208.632 114.281  0.00  0.00     0.059 A 
ATOM     21  C20  11 d          -7.549 208.993 115.187  0.00  0.00     0.055 A 
ATOM     22  C21  11 d          -8.843 209.286 114.723  0.00  0.00     0.031 A 
ATOM     23  C22  11 d          -9.134 209.202 113.353  0.00  0.00     0.002 A 
ATOM     24  C23  11 d          -8.126 208.844 112.444  0.00  0.00     0.002 A 
ATOM     25  C24  11 d          -6.830 208.567 112.906  0.00  0.00     0.032 A 
ATOM     26  N2   11 d          -7.233 209.146 116.513  0.00  0.00    -0.375 N 
ATOM     27  C25  11 d          -5.518 208.519 119.505  0.00  0.00     0.010 A 
ATOM     28  C26  11 d          -5.432 209.008 120.816  0.00  0.00     0.018 A 
ATOM     29  H14  11 d          -4.506 208.882 114.331  0.00  0.00     0.166 HD
ATOM     30  H19  11 d          -7.251 210.079 116.867  0.00  0.00     0.160 HD
ENDROOT
BRANCH   1  31
ATOM     31  C1   11 d          -6.457 210.104 122.833  0.00  0.00     0.292 C 
ATOM     32  O2   11 d          -7.302 209.739 123.692  0.00  0.00    -0.259 OA
BRANCH  31  33
ATOM     33  O3   11 d          -5.362 210.917 123.246  0.00  0.00    -0.323 OA
ATOM     34  C27  11 d          -5.488 212.242 122.678  0.00  0.00     0.213 C 
ENDBRANCH  31  33
ENDBRANCH   1  31
TORSDOF 2
ENDMDL
MODEL 6
REMARK VINA RESULT:      -7.3      2.777      7.972
REMARK  2 active torsions:
REMARK  status: ('A' for Active; 'I' for Inactive)
REMARK    1  A    between atoms: C1_1  and  C2_2 
REMARK    2  A    between atoms: C1_1  and  O3_31 
ROOT
ATOM      1  C2   11 d          -5.571 208.411 115.334  0.00  0.00     0.039 A 
ATOM      2  C3   11 d          -6.833 208.877 114.913  0.00  0.00     0.018 A 
ATOM      3  C4   11 d          -7.958 208.731 115.738  0.00  0.00     0.010 A 
ATOM      4  C5   11 d          -7.860 208.119 117.008  0.00  0.00    -0.031 A 
ATOM      5  C6   11 d          -9.126 208.034 117.876  0.00  0.00     0.154 C 
ATOM      6  C7   11 d          -8.899 207.555 119.340  0.00  0.00     0.037 C 
ATOM      7  C8   11 d          -7.960 208.385 120.192  0.00  0.00     0.160 C 
ATOM      8  O1   11 d          -7.402 209.405 119.712  0.00  0.00    -0.293 OA
ATOM      9  C9   11 d          -7.577 207.955 121.588  0.00  0.00     0.093 C 
ATOM     10  C10  11 d          -7.682 206.426 121.776  0.00  0.00     0.031 C 
ATOM     11  C11  11 d          -6.588 205.571 121.116  0.00  0.00    -0.053 A 
ATOM     12  C12  11 d          -6.719 204.161 121.086  0.00  0.00     0.007 A 
ATOM     13  C13  11 d          -5.769 203.354 120.442  0.00  0.00     0.001 A 
ATOM     14  C14  11 d          -4.656 203.935 119.826  0.00  0.00     0.000 A 
ATOM     15  C15  11 d          -4.488 205.324 119.861  0.00  0.00     0.001 A 
ATOM     16  C16  11 d          -5.439 206.133 120.502  0.00  0.00     0.007 A 
ATOM     17  C17  11 d          -9.123 206.050 121.359  0.00  0.00     0.067 C 
ATOM     18  C18  11 d          -9.516 206.480 119.951  0.00  0.00     0.022 C 
ATOM     19  N1   11 d         -10.513 205.692 119.382  0.00  0.00    -0.357 N 
ATOM     20  C19  11 d         -11.576 206.242 118.696  0.00  0.00     0.059 A 
ATOM     21  C20  11 d         -11.360 207.071 117.583  0.00  0.00     0.055 A 
ATOM     22  C21  11 d         -12.451 207.608 116.878  0.00  0.00     0.031 A 
ATOM     23  C22  11 d         -13.762 207.331 117.296  0.00  0.00     0.002 A 
ATOM     24  C23  11 d         -13.983 206.502 118.406  0.00  0.00     0.002 A 
ATOM     25  C24  11 d         -12.893 205.953 119.100  0.00  0.00     0.032 A 
ATOM     26  N2   11 d         -10.077 207.271 117.139  0.00  0.00    -0.375 N 
ATOM     27  C25  11 d          -6.600 207.622 117.402  0.00  0.00     0.010 A 
ATOM     28  C26  11 d          -5.471 207.770 116.584  0.00  0.00     0.018 A 
ATOM     29  H14  11 d         -10.481 204.703 119.487  0.00  0.00     0.166 HD
ATOM     30  H19  11 d          -9.842 206.851 116.265  0.00  0.00     0.160 HD
ENDROOT
BRANCH   1  31
ATOM     31  C1   11 d          -4.363 208.589 114.482  0.00  0.00     0.292 C 
ATOM     32  O2   11 d          -3.317 209.103 114.959  0.00  0.00    -0.259 OA
BRANCH  31  33
ATOM     33  O3   11 d          -4.339 208.096 113.145  0.00  0.00    -0.323 OA
ATOM     34  C27  11 d          -2.993 207.704 112.785  0.00  0.00     0.213 C 
ENDBRANCH  31  33
ENDBRANCH   1  31
TORSDOF 2
ENDMDL
MODEL 7
REMARK VINA RESULT:      -7.2      4.529      7.473
REMARK  2 active torsions:
REMARK  status: ('A' for Active; 'I' for Inactive)
REMARK    1  A    between atoms: C1_1  and  C2_2 
REMARK    2  A    between atoms: C1_1  and  O3_31 
ROOT
ATOM      1  C2   11 d         -11.691 207.068 117.243  0.00  0.00     0.039 A 
ATOM      2  C3   11 d         -10.773 208.042 116.803  0.00  0.00     0.018 A 
ATOM      3  C4   11 d          -9.671 208.393 117.597  0.00  0.00     0.010 A 
ATOM      4  C5   11 d          -9.449 207.783 118.852  0.00  0.00    -0.031 A 
ATOM      5  C6   11 d          -8.196 208.185 119.648  0.00  0.00     0.154 C 
ATOM      6  C7   11 d          -7.899 207.318 120.905  0.00  0.00     0.037 C 
ATOM      7  C8   11 d          -7.694 205.834 120.679  0.00  0.00     0.160 C 
ATOM      8  O1   11 d          -7.769 205.353 119.519  0.00  0.00    -0.293 OA
ATOM      9  C9   11 d          -7.512 204.879 121.835  0.00  0.00     0.093 C 
ATOM     10  C10  11 d          -8.164 205.405 123.132  0.00  0.00     0.031 C 
ATOM     11  C11  11 d          -9.698 205.345 123.209  0.00  0.00    -0.053 A 
ATOM     12  C12  11 d         -10.374 205.977 124.282  0.00  0.00     0.007 A 
ATOM     13  C13  11 d         -11.776 205.992 124.352  0.00  0.00     0.001 A 
ATOM     14  C14  11 d         -12.535 205.363 123.360  0.00  0.00     0.000 A 
ATOM     15  C15  11 d         -11.893 204.710 122.302  0.00  0.00     0.001 A 
ATOM     16  C16  11 d         -10.492 204.697 122.228  0.00  0.00     0.007 A 
ATOM     17  C17  11 d          -7.568 206.814 123.361  0.00  0.00     0.067 C 
ATOM     18  C18  11 d          -7.750 207.782 122.198  0.00  0.00     0.022 C 
ATOM     19  N1   11 d          -7.754 209.121 122.581  0.00  0.00    -0.357 N 
ATOM     20  C19  11 d          -7.057 210.083 121.880  0.00  0.00     0.059 A 
ATOM     21  C20  11 d          -7.305 210.297 120.514  0.00  0.00     0.055 A 
ATOM     22  C21  11 d          -6.604 211.295 119.816  0.00  0.00     0.031 A 
ATOM     23  C22  11 d          -5.641 212.071 120.478  0.00  0.00     0.002 A 
ATOM     24  C23  11 d          -5.392 211.863 121.844  0.00  0.00     0.002 A 
ATOM     25  C24  11 d          -6.103 210.877 122.544  0.00  0.00     0.032 A 
ATOM     26  N2   11 d          -8.302 209.585 119.898  0.00  0.00    -0.375 N 
ATOM     27  C25  11 d         -10.396 206.839 119.299  0.00  0.00     0.010 A 
ATOM     28  C26  11 d         -11.496 206.480 118.508  0.00  0.00     0.018 A 
ATOM     29  H14  11 d          -8.254 209.400 123.395  0.00  0.00     0.166 HD
ATOM     30  H19  11 d          -9.113 210.101 119.630  0.00  0.00     0.160 HD
ENDROOT
BRANCH   1  31
ATOM     31  C1   11 d         -12.847 206.663 116.395  0.00  0.00     0.292 C 
ATOM     32  O2   11 d         -12.714 205.762 115.526  0.00  0.00    -0.259 OA
BRANCH  31  33
ATOM     33  O3   11 d         -14.140 207.218 116.619  0.00  0.00    -0.323 OA
ATOM     34  C27  11 d         -14.498 208.095 115.525  0.00  0.00     0.213 C 
ENDBRANCH  31  33
ENDBRANCH   1  31
TORSDOF 2
ENDMDL
MODEL 8
REMARK VINA RESULT:      -7.2      3.271      6.258
REMARK  2 active torsions:
REMARK  status: ('A' for Active; 'I' for Inactive)
REMARK    1  A    between atoms: C1_1  and  C2_2 
REMARK    2  A    between atoms: C1_1  and  O3_31 
ROOT
ATOM      1  C2   11 d          -9.291 206.160 122.870  0.00  0.00     0.039 A 
ATOM      2  C3   11 d         -10.206 205.500 122.027  0.00  0.00     0.018 A 
ATOM      3  C4   11 d         -10.128 205.648 120.635  0.00  0.00     0.010 A 
ATOM      4  C5   11 d          -9.135 206.457 120.039  0.00  0.00    -0.031 A 
ATOM      5  C6   11 d          -9.082 206.538 118.505  0.00  0.00     0.154 C 
ATOM      6  C7   11 d          -7.835 207.260 117.918  0.00  0.00     0.037 C 
ATOM      7  C8   11 d          -6.480 206.681 118.273  0.00  0.00     0.160 C 
ATOM      8  O1   11 d          -6.397 205.666 119.011  0.00  0.00    -0.293 OA
ATOM      9  C9   11 d          -5.199 207.363 117.855  0.00  0.00     0.093 C 
ATOM     10  C10  11 d          -5.387 208.882 117.650  0.00  0.00     0.031 C 
ATOM     11  C11  11 d          -5.534 209.738 118.919  0.00  0.00    -0.053 A 
ATOM     12  C12  11 d          -5.895 211.104 118.808  0.00  0.00     0.007 A 
ATOM     13  C13  11 d          -6.094 211.899 119.947  0.00  0.00     0.001 A 
ATOM     14  C14  11 d          -5.921 211.354 121.223  0.00  0.00     0.000 A 
ATOM     15  C15  11 d          -5.541 210.015 121.361  0.00  0.00     0.001 A 
ATOM     16  C16  11 d          -5.345 209.216 120.224  0.00  0.00     0.007 A 
ATOM     17  C17  11 d          -6.553 209.029 116.644  0.00  0.00     0.067 C 
ATOM     18  C18  11 d          -7.849 208.344 117.060  0.00  0.00     0.022 C 
ATOM     19  N1   11 d          -8.989 208.920 116.506  0.00  0.00    -0.357 N 
ATOM     20  C19  11 d         -10.007 208.156 115.973  0.00  0.00     0.059 A 
ATOM     21  C20  11 d         -10.666 207.193 116.754  0.00  0.00     0.055 A 
ATOM     22  C21  11 d         -11.717 206.436 116.207  0.00  0.00     0.031 A 
ATOM     23  C22  11 d         -12.100 206.629 114.870  0.00  0.00     0.002 A 
ATOM     24  C23  11 d         -11.445 207.593 114.087  0.00  0.00     0.002 A 
ATOM     25  C24  11 d         -10.407 208.359 114.639  0.00  0.00     0.032 A 
ATOM     26  N2   11 d         -10.335 207.068 118.079  0.00  0.00    -0.375 N 
ATOM     27  C25  11 d          -8.249 207.144 120.894  0.00  0.00     0.010 A 
ATOM     28  C26  11 d          -8.318 206.996 122.287  0.00  0.00     0.018 A 
ATOM     29  H14  11 d          -9.073 209.910 116.468  0.00  0.00     0.166 HD
ATOM     30  H19  11 d         -11.022 207.370 118.737  0.00  0.00     0.160 HD
ENDROOT
BRANCH   1  31
ATOM     31  C1   11 d          -9.342 205.985 124.349  0.00  0.00     0.292 C 
ATOM     32  O2   11 d          -9.296 204.833 124.855  0.00  0.00    -0.259 OA
BRANCH  31  33
ATOM     33  O3   11 d          -9.348 207.117 125.213  0.00  0.00    -0.323 OA
ATOM     34  C27  11 d         -10.604 207.827 125.092  0.00  0.00     0.213 C 
ENDBRANCH  31  33
ENDBRANCH   1  31
TORSDOF 2
ENDMDL
MODEL 9
REMARK VINA RESULT:      -7.1     12.553     17.950
REMARK  2 active torsions:
REMARK  status: ('A' for Active; 'I' for Inactive)
REMARK    1  A    between atoms: C1_1  and  C2_2 
REMARK    2  A    between atoms: C1_1  and  O3_31 
ROOT
ATOM      1  C2   11 d         -19.893 204.409 121.488  0.00  0.00     0.039 A 
ATOM      2  C3   11 d         -20.320 203.400 120.603  0.00  0.00     0.018 A 
ATOM      3  C4   11 d         -20.802 202.178 121.094  0.00  0.00     0.010 A 
ATOM      4  C5   11 d         -20.874 201.924 122.482  0.00  0.00    -0.031 A 
ATOM      5  C6   11 d         -21.454 200.578 122.949  0.00  0.00     0.154 C 
ATOM      6  C7   11 d         -21.710 200.458 124.479  0.00  0.00     0.037 C 
ATOM      7  C8   11 d         -22.659 201.467 125.094  0.00  0.00     0.160 C 
ATOM      8  O1   11 d         -23.197 202.351 124.379  0.00  0.00    -0.293 OA
ATOM      9  C9   11 d         -22.895 201.518 126.586  0.00  0.00     0.093 C 
ATOM     10  C10  11 d         -21.696 200.962 127.384  0.00  0.00     0.031 C 
ATOM     11  C11  11 d         -20.444 201.850 127.462  0.00  0.00    -0.053 A 
ATOM     12  C12  11 d         -19.247 201.332 128.015  0.00  0.00     0.007 A 
ATOM     13  C13  11 d         -18.069 202.095 128.048  0.00  0.00     0.001 A 
ATOM     14  C14  11 d         -18.064 203.400 127.545  0.00  0.00     0.000 A 
ATOM     15  C15  11 d         -19.239 203.946 127.016  0.00  0.00     0.001 A 
ATOM     16  C16  11 d         -20.416 203.184 126.978  0.00  0.00     0.007 A 
ATOM     17  C17  11 d         -21.438 199.544 126.822  0.00  0.00     0.067 C 
ATOM     18  C18  11 d         -21.198 199.486 125.317  0.00  0.00     0.022 C 
ATOM     19  N1   11 d         -20.433 198.394 124.915  0.00  0.00    -0.357 N 
ATOM     20  C19  11 d         -20.769 197.634 123.813  0.00  0.00     0.059 A 
ATOM     21  C20  11 d         -20.900 198.226 122.546  0.00  0.00     0.055 A 
ATOM     22  C21  11 d         -21.220 197.438 121.428  0.00  0.00     0.031 A 
ATOM     23  C22  11 d         -21.427 196.058 121.576  0.00  0.00     0.002 A 
ATOM     24  C23  11 d         -21.294 195.462 122.840  0.00  0.00     0.002 A 
ATOM     25  C24  11 d         -20.959 196.247 123.954  0.00  0.00     0.032 A 
ATOM     26  N2   11 d         -20.619 199.561 122.401  0.00  0.00    -0.375 N 
ATOM     27  C25  11 d         -20.407 202.926 123.358  0.00  0.00     0.010 A 
ATOM     28  C26  11 d         -19.930 204.152 122.873  0.00  0.00     0.018 A 
ATOM     29  H14  11 d         -19.631 198.132 125.443  0.00  0.00     0.166 HD
ATOM     30  H19  11 d         -19.795 199.786 121.887  0.00  0.00     0.160 HD
ENDROOT
BRANCH   1  31
ATOM     31  C1   11 d         -19.411 205.724 120.981  0.00  0.00     0.292 C 
ATOM     32  O2   11 d         -20.169 206.459 120.296  0.00  0.00    -0.259 OA
BRANCH  31  33
ATOM     33  O3   11 d         -18.121 206.211 121.341  0.00  0.00    -0.323 OA
ATOM     34  C27  11 d         -17.109 205.236 120.994  0.00  0.00     0.213 C 
ENDBRANCH  31  33
ENDBRANCH   1  31
TORSDOF 2
ENDMDL
MODEL 10
REMARK VINA RESULT:      -6.8     10.718     16.065
REMARK  2 active torsions:
REMARK  status: ('A' for Active; 'I' for Inactive)
REMARK    1  A    between atoms: C1_1  and  C2_2 
REMARK    2  A    between atoms: C1_1  and  O3_31 
ROOT
ATOM      1  C2   11 d         -16.710 203.767 120.478  0.00  0.00     0.039 A 
ATOM      2  C3   11 d         -18.033 203.436 120.124  0.00  0.00     0.018 A 
ATOM      3  C4   11 d         -19.054 203.453 121.085  0.00  0.00     0.010 A 
ATOM      4  C5   11 d         -18.789 203.802 122.429  0.00  0.00    -0.031 A 
ATOM      5  C6   11 d         -19.965 203.842 123.418  0.00  0.00     0.154 C 
ATOM      6  C7   11 d         -19.641 204.446 124.815  0.00  0.00     0.037 C 
ATOM      7  C8   11 d         -19.129 205.872 124.840  0.00  0.00     0.160 C 
ATOM      8  O1   11 d         -18.980 206.512 123.767  0.00  0.00    -0.293 OA
ATOM      9  C9   11 d         -18.676 206.523 126.125  0.00  0.00     0.093 C 
ATOM     10  C10  11 d         -18.198 205.487 127.166  0.00  0.00     0.031 C 
ATOM     11  C11  11 d         -16.831 204.830 126.912  0.00  0.00    -0.053 A 
ATOM     12  C12  11 d         -16.414 203.742 127.717  0.00  0.00     0.007 A 
ATOM     13  C13  11 d         -15.199 203.081 127.475  0.00  0.00     0.001 A 
ATOM     14  C14  11 d         -14.365 203.503 126.435  0.00  0.00     0.000 A 
ATOM     15  C15  11 d         -14.741 204.591 125.640  0.00  0.00     0.001 A 
ATOM     16  C16  11 d         -15.957 205.251 125.877  0.00  0.00     0.007 A 
ATOM     17  C17  11 d         -19.366 204.487 127.329  0.00  0.00     0.067 C 
ATOM     18  C18  11 d         -19.828 203.825 126.035  0.00  0.00     0.022 C 
ATOM     19  N1   11 d         -20.423 202.581 126.225  0.00  0.00    -0.357 N 
ATOM     20  C19  11 d         -21.583 202.218 125.571  0.00  0.00     0.059 A 
ATOM     21  C20  11 d         -21.648 202.226 124.168  0.00  0.00     0.055 A 
ATOM     22  C21  11 d         -22.828 201.834 123.513  0.00  0.00     0.031 A 
ATOM     23  C22  11 d         -23.951 201.449 124.260  0.00  0.00     0.002 A 
ATOM     24  C23  11 d         -23.890 201.438 125.662  0.00  0.00     0.002 A 
ATOM     25  C24  11 d         -22.706 201.815 126.315  0.00  0.00     0.032 A 
ATOM     26  N2   11 d         -20.519 202.529 123.449  0.00  0.00    -0.375 N 
ATOM     27  C25  11 d         -17.455 204.092 122.780  0.00  0.00     0.010 A 
ATOM     28  C26  11 d         -16.431 204.082 121.823  0.00  0.00     0.018 A 
ATOM     29  H14  11 d         -20.020 201.934 126.865  0.00  0.00     0.166 HD
ATOM     30  H19  11 d         -20.102 201.776 122.944  0.00  0.00     0.160 HD
ENDROOT
BRANCH   1  31
ATOM     31  C1   11 d         -15.623 203.785 119.461  0.00  0.00     0.292 C 
ATOM     32  O2   11 d         -14.756 204.697 119.471  0.00  0.00    -0.259 OA
BRANCH  31  33
ATOM     33  O3   11 d         -15.492 202.721 118.522  0.00  0.00    -0.323 OA
ATOM     34  C27  11 d         -15.152 203.250 117.218  0.00  0.00     0.213 C 
ENDBRANCH  31  33
ENDBRANCH   1  31
TORSDOF 2
ENDMDL
MODEL 11
REMARK VINA RESULT:      -6.8      2.963      4.694
REMARK  2 active torsions:
REMARK  status: ('A' for Active; 'I' for Inactive)
REMARK    1  A    between atoms: C1_1  and  C2_2 
REMARK    2  A    between atoms: C1_1  and  O3_31 
ROOT
ATOM      1  C2   11 d         -10.657 207.496 117.037  0.00  0.00     0.039 A 
ATOM      2  C3   11 d         -10.988 206.701 118.152  0.00  0.00     0.018 A 
ATOM      3  C4   11 d         -10.124 206.623 119.254  0.00  0.00     0.010 A 
ATOM      4  C5   11 d          -8.905 207.337 119.281  0.00  0.00    -0.031 A 
ATOM      5  C6   11 d          -8.029 207.239 120.540  0.00  0.00     0.154 C 
ATOM      6  C7   11 d          -6.822 208.220 120.590  0.00  0.00     0.037 C 
ATOM      7  C8   11 d          -7.140 209.699 120.513  0.00  0.00     0.160 C 
ATOM      8  O1   11 d          -8.332 210.088 120.412  0.00  0.00    -0.293 OA
ATOM      9  C9   11 d          -6.045 210.737 120.439  0.00  0.00     0.093 C 
ATOM     10  C10  11 d          -4.745 210.169 119.829  0.00  0.00     0.031 C 
ATOM     11  C11  11 d          -4.741 209.927 118.311  0.00  0.00    -0.053 A 
ATOM     12  C12  11 d          -3.658 209.237 117.712  0.00  0.00     0.007 A 
ATOM     13  C13  11 d          -3.649 208.948 116.338  0.00  0.00     0.001 A 
ATOM     14  C14  11 d          -4.715 209.354 115.528  0.00  0.00     0.000 A 
ATOM     15  C15  11 d          -5.785 210.058 116.089  0.00  0.00     0.001 A 
ATOM     16  C16  11 d          -5.798 210.346 117.463  0.00  0.00     0.007 A 
ATOM     17  C17  11 d          -4.394 208.923 120.675  0.00  0.00     0.067 C 
ATOM     18  C18  11 d          -5.494 207.871 120.753  0.00  0.00     0.022 C 
ATOM     19  N1   11 d          -5.021 206.583 120.989  0.00  0.00    -0.357 N 
ATOM     20  C19  11 d          -5.623 205.739 121.900  0.00  0.00     0.059 A 
ATOM     21  C20  11 d          -6.981 205.402 121.777  0.00  0.00     0.055 A 
ATOM     22  C21  11 d          -7.577 204.524 122.698  0.00  0.00     0.031 A 
ATOM     23  C22  11 d          -6.821 203.995 123.755  0.00  0.00     0.002 A 
ATOM     24  C23  11 d          -5.463 204.327 123.881  0.00  0.00     0.002 A 
ATOM     25  C24  11 d          -4.865 205.192 122.951  0.00  0.00     0.032 A 
ATOM     26  N2   11 d          -7.688 205.864 120.696  0.00  0.00    -0.375 N 
ATOM     27  C25  11 d          -8.566 208.098 118.143  0.00  0.00     0.010 A 
ATOM     28  C26  11 d          -9.428 208.184 117.041  0.00  0.00     0.018 A 
ATOM     29  H14  11 d          -4.213 206.258 120.508  0.00  0.00     0.166 HD
ATOM     30  H19  11 d          -7.955 205.182 120.019  0.00  0.00     0.160 HD
ENDROOT
BRANCH   1  31
ATOM     31  C1   11 d         -11.581 207.613 115.875  0.00  0.00     0.292 C 
ATOM     32  O2   11 d         -12.685 207.008 115.875  0.00  0.00    -0.259 OA
BRANCH  31  33
ATOM     33  O3   11 d         -11.275 208.485 114.791  0.00  0.00    -0.323 OA
ATOM     34  C27  11 d         -11.626 207.857 113.535  0.00  0.00     0.213 C 
ENDBRANCH  31  33
ENDBRANCH   1  31
TORSDOF 2
ENDMDL
MODEL 12
REMARK VINA RESULT:      -6.7      4.186      7.581
REMARK  2 active torsions:
REMARK  status: ('A' for Active; 'I' for Inactive)
REMARK    1  A    between atoms: C1_1  and  C2_2 
REMARK    2  A    between atoms: C1_1  and  O3_31 
ROOT
ATOM      1  C2   11 d          -5.356 212.190 122.549  0.00  0.00     0.039 A 
ATOM      2  C3   11 d          -5.516 212.830 121.304  0.00  0.00     0.018 A 
ATOM      3  C4   11 d          -5.927 212.103 120.177  0.00  0.00     0.010 A 
ATOM      4  C5   11 d          -6.194 210.718 120.256  0.00  0.00    -0.031 A 
ATOM      5  C6   11 d          -6.682 209.995 118.990  0.00  0.00     0.154 C 
ATOM      6  C7   11 d          -7.167 208.532 119.204  0.00  0.00     0.037 C 
ATOM      7  C8   11 d          -8.313 208.327 120.174  0.00  0.00     0.160 C 
ATOM      8  O1   11 d          -8.826 209.310 120.768  0.00  0.00    -0.293 OA
ATOM      9  C9   11 d          -8.791 206.942 120.546  0.00  0.00     0.093 C 
ATOM     10  C10  11 d          -7.682 205.881 120.387  0.00  0.00     0.031 C 
ATOM     11  C11  11 d          -6.569 205.878 121.448  0.00  0.00    -0.053 A 
ATOM     12  C12  11 d          -5.426 205.061 121.266  0.00  0.00     0.007 A 
ATOM     13  C13  11 d          -4.365 205.078 122.185  0.00  0.00     0.001 A 
ATOM     14  C14  11 d          -4.428 205.898 123.316  0.00  0.00     0.000 A 
ATOM     15  C15  11 d          -5.557 206.696 123.533  0.00  0.00     0.001 A 
ATOM     16  C16  11 d          -6.617 206.684 122.614  0.00  0.00     0.007 A 
ATOM     17  C17  11 d          -7.175 206.017 118.932  0.00  0.00     0.067 C 
ATOM     18  C18  11 d          -6.690 207.411 118.551  0.00  0.00     0.022 C 
ATOM     19  N1   11 d          -5.749 207.415 117.524  0.00  0.00    -0.357 N 
ATOM     20  C19  11 d          -5.813 208.314 116.480  0.00  0.00     0.059 A 
ATOM     21  C20  11 d          -5.804 209.697 116.722  0.00  0.00     0.055 A 
ATOM     22  C21  11 d          -5.846 210.604 115.649  0.00  0.00     0.031 A 
ATOM     23  C22  11 d          -5.914 210.129 114.330  0.00  0.00     0.002 A 
ATOM     24  C23  11 d          -5.920 208.748 114.083  0.00  0.00     0.002 A 
ATOM     25  C24  11 d          -5.862 207.843 115.155  0.00  0.00     0.032 A 
ATOM     26  N2   11 d          -5.659 210.148 118.010  0.00  0.00    -0.375 N 
ATOM     27  C25  11 d          -5.992 210.081 121.498  0.00  0.00     0.010 A 
ATOM     28  C26  11 d          -5.587 210.803 122.629  0.00  0.00     0.018 A 
ATOM     29  H14  11 d          -5.019 206.739 117.521  0.00  0.00     0.166 HD
ATOM     30  H19  11 d          -4.794 210.593 118.228  0.00  0.00     0.160 HD
ENDROOT
BRANCH   1  31
ATOM     31  C1   11 d          -4.953 212.957 123.761  0.00  0.00     0.292 C 
ATOM     32  O2   11 d          -3.766 212.911 124.177  0.00  0.00    -0.259 OA
BRANCH  31  33
ATOM     33  O3   11 d          -5.877 213.826 124.409  0.00  0.00    -0.323 OA
ATOM     34  C27  11 d          -5.737 213.715 125.846  0.00  0.00     0.213 C 
ENDBRANCH  31  33
ENDBRANCH   1  31
TORSDOF 2
ENDMDL
MODEL 13
REMARK VINA RESULT:      -6.5      7.533     11.454
REMARK  2 active torsions:
REMARK  status: ('A' for Active; 'I' for Inactive)
REMARK    1  A    between atoms: C1_1  and  C2_2 
REMARK    2  A    between atoms: C1_1  and  O3_31 
ROOT
ATOM      1  C2   11 d         -18.733 204.466 123.573  0.00  0.00     0.039 A 
ATOM      2  C3   11 d         -18.777 204.084 122.217  0.00  0.00     0.018 A 
ATOM      3  C4   11 d         -17.598 203.982 121.466  0.00  0.00     0.010 A 
ATOM      4  C5   11 d         -16.336 204.254 122.043  0.00  0.00    -0.031 A 
ATOM      5  C6   11 d         -15.082 204.079 121.171  0.00  0.00     0.154 C 
ATOM      6  C7   11 d         -13.726 204.177 121.929  0.00  0.00     0.037 C 
ATOM      7  C8   11 d         -13.498 203.186 123.053  0.00  0.00     0.160 C 
ATOM      8  O1   11 d         -14.382 202.339 123.341  0.00  0.00    -0.293 OA
ATOM      9  C9   11 d         -12.270 203.260 123.929  0.00  0.00     0.093 C 
ATOM     10  C10  11 d         -11.686 204.687 123.994  0.00  0.00     0.031 C 
ATOM     11  C11  11 d         -12.458 205.714 124.838  0.00  0.00    -0.053 A 
ATOM     12  C12  11 d         -12.089 207.081 124.794  0.00  0.00     0.007 A 
ATOM     13  C13  11 d         -12.808 208.053 125.506  0.00  0.00     0.001 A 
ATOM     14  C14  11 d         -13.904 207.681 126.291  0.00  0.00     0.000 A 
ATOM     15  C15  11 d         -14.276 206.335 126.373  0.00  0.00     0.001 A 
ATOM     16  C16  11 d         -13.560 205.361 125.659  0.00  0.00     0.007 A 
ATOM     17  C17  11 d         -11.454 205.113 122.525  0.00  0.00     0.067 C 
ATOM     18  C18  11 d         -12.690 205.043 121.636  0.00  0.00     0.022 C 
ATOM     19  N1   11 d         -12.651 205.919 120.554  0.00  0.00    -0.357 N 
ATOM     20  C19  11 d         -13.027 205.529 119.285  0.00  0.00     0.059 A 
ATOM     21  C20  11 d         -14.312 205.017 119.043  0.00  0.00     0.055 A 
ATOM     22  C21  11 d         -14.691 204.643 117.742  0.00  0.00     0.031 A 
ATOM     23  C22  11 d         -13.780 204.766 116.682  0.00  0.00     0.002 A 
ATOM     24  C23  11 d         -12.495 205.279 116.919  0.00  0.00     0.002 A 
ATOM     25  C24  11 d         -12.123 205.666 118.216  0.00  0.00     0.032 A 
ATOM     26  N2   11 d         -15.219 204.975 120.072  0.00  0.00    -0.375 N 
ATOM     27  C25  11 d         -16.308 204.673 123.389  0.00  0.00     0.010 A 
ATOM     28  C26  11 d         -17.483 204.772 124.147  0.00  0.00     0.018 A 
ATOM     29  H14  11 d         -12.324 206.850 120.684  0.00  0.00     0.166 HD
ATOM     30  H19  11 d         -15.986 205.610 120.011  0.00  0.00     0.160 HD
ENDROOT
BRANCH   1  31
ATOM     31  C1   11 d         -19.975 204.546 124.390  0.00  0.00     0.292 C 
ATOM     32  O2   11 d         -20.230 205.579 125.063  0.00  0.00    -0.259 OA
BRANCH  31  33
ATOM     33  O3   11 d         -20.939 203.497 124.349  0.00  0.00    -0.323 OA
ATOM     34  C27  11 d         -20.579 202.457 125.289  0.00  0.00     0.213 C 
ENDBRANCH  31  33
ENDBRANCH   1  31
TORSDOF 2
ENDMDL
MODEL 14
REMARK VINA RESULT:      -6.4      1.973      3.029
REMARK  2 active torsions:
REMARK  status: ('A' for Active; 'I' for Inactive)
REMARK    1  A    between atoms: C1_1  and  C2_2 
REMARK    2  A    between atoms: C1_1  and  O3_31 
ROOT
ATOM      1  C2   11 d          -9.364 207.581 118.161  0.00  0.00     0.039 A 
ATOM      2  C3   11 d          -9.206 206.719 119.264  0.00  0.00     0.018 A 
ATOM      3  C4   11 d          -7.930 206.296 119.662  0.00  0.00     0.010 A 
ATOM      4  C5   11 d          -6.770 206.722 118.975  0.00  0.00    -0.031 A 
ATOM      5  C6   11 d          -5.401 206.254 119.494  0.00  0.00     0.154 C 
ATOM      6  C7   11 d          -4.169 206.937 118.832  0.00  0.00     0.037 C 
ATOM      7  C8   11 d          -4.078 208.444 118.949  0.00  0.00     0.160 C 
ATOM      8  O1   11 d          -4.972 209.089 119.555  0.00  0.00    -0.293 OA
ATOM      9  C9   11 d          -2.989 209.224 118.250  0.00  0.00     0.093 C 
ATOM     10  C10  11 d          -2.456 208.488 117.002  0.00  0.00     0.031 C 
ATOM     11  C11  11 d          -3.366 208.477 115.762  0.00  0.00    -0.053 A 
ATOM     12  C12  11 d          -3.029 207.668 114.649  0.00  0.00     0.007 A 
ATOM     13  C13  11 d          -3.866 207.589 113.526  0.00  0.00     0.001 A 
ATOM     14  C14  11 d          -5.053 208.329 113.481  0.00  0.00     0.000 A 
ATOM     15  C15  11 d          -5.398 209.155 114.556  0.00  0.00     0.001 A 
ATOM     16  C16  11 d          -4.564 209.232 115.682  0.00  0.00     0.007 A 
ATOM     17  C17  11 d          -2.029 207.085 117.492  0.00  0.00     0.067 C 
ATOM     18  C18  11 d          -3.124 206.292 118.197  0.00  0.00     0.022 C 
ATOM     19  N1   11 d          -2.954 204.913 118.119  0.00  0.00    -0.357 N 
ATOM     20  C19  11 d          -3.136 204.092 119.214  0.00  0.00     0.059 A 
ATOM     21  C20  11 d          -4.360 204.074 119.901  0.00  0.00     0.055 A 
ATOM     22  C21  11 d          -4.541 203.218 121.001  0.00  0.00     0.031 A 
ATOM     23  C22  11 d          -3.492 202.389 121.427  0.00  0.00     0.002 A 
ATOM     24  C23  11 d          -2.267 202.402 120.741  0.00  0.00     0.002 A 
ATOM     25  C24  11 d          -2.093 203.246 119.633  0.00  0.00     0.032 A 
ATOM     26  N2   11 d          -5.403 204.831 119.429  0.00  0.00    -0.375 N 
ATOM     27  C25  11 d          -6.943 207.553 117.848  0.00  0.00     0.010 A 
ATOM     28  C26  11 d          -8.217 207.982 117.449  0.00  0.00     0.018 A 
ATOM     29  H14  11 d          -2.672 204.497 117.260  0.00  0.00     0.166 HD
ATOM     30  H19  11 d          -6.169 204.329 119.034  0.00  0.00     0.160 HD
ENDROOT
BRANCH   1  31
ATOM     31  C1   11 d         -10.712 208.062 117.748  0.00  0.00     0.292 C 
ATOM     32  O2   11 d         -11.650 208.124 118.585  0.00  0.00    -0.259 OA
BRANCH  31  33
ATOM     33  O3   11 d         -10.934 208.549 116.428  0.00  0.00    -0.323 OA
ATOM     34  C27  11 d         -12.132 207.953 115.875  0.00  0.00     0.213 C 
ENDBRANCH  31  33
ENDBRANCH   1  31
TORSDOF 2
ENDMDL
MODEL 15
REMARK VINA RESULT:      -6.3      3.551      6.853
REMARK  2 active torsions:
REMARK  status: ('A' for Active; 'I' for Inactive)
REMARK    1  A    between atoms: C1_1  and  C2_2 
REMARK    2  A    between atoms: C1_1  and  O3_31 
ROOT
ATOM      1  C2   11 d          -6.365 205.435 123.263  0.00  0.00     0.039 A 
ATOM      2  C3   11 d          -7.562 204.788 122.900  0.00  0.00     0.018 A 
ATOM      3  C4   11 d          -8.149 205.022 121.648  0.00  0.00     0.010 A 
ATOM      4  C5   11 d          -7.559 205.907 120.717  0.00  0.00    -0.031 A 
ATOM      5  C6   11 d          -8.234 206.081 119.347  0.00  0.00     0.154 C 
ATOM      6  C7   11 d          -7.415 206.890 118.299  0.00  0.00     0.037 C 
ATOM      7  C8   11 d          -6.047 206.350 117.937  0.00  0.00     0.160 C 
ATOM      8  O1   11 d          -5.616 205.298 118.475  0.00  0.00    -0.293 OA
ATOM      9  C9   11 d          -5.118 207.111 117.019  0.00  0.00     0.093 C 
ATOM     10  C10  11 d          -5.396 208.629 117.038  0.00  0.00     0.031 C 
ATOM     11  C11  11 d          -4.939 209.402 118.286  0.00  0.00    -0.053 A 
ATOM     12  C12  11 d          -5.323 210.754 118.457  0.00  0.00     0.007 A 
ATOM     13  C13  11 d          -4.973 211.471 119.611  0.00  0.00     0.001 A 
ATOM     14  C14  11 d          -4.216 210.859 120.615  0.00  0.00     0.000 A 
ATOM     15  C15  11 d          -3.801 209.532 120.462  0.00  0.00     0.001 A 
ATOM     16  C16  11 d          -4.154 208.812 119.310  0.00  0.00     0.007 A 
ATOM     17  C17  11 d          -6.899 208.785 116.706  0.00  0.00     0.067 C 
ATOM     18  C18  11 d          -7.841 208.022 117.629  0.00  0.00     0.022 C 
ATOM     19  N1   11 d          -9.114 208.580 117.716  0.00  0.00    -0.357 N 
ATOM     20  C19  11 d         -10.255 207.806 117.666  0.00  0.00     0.059 A 
ATOM     21  C20  11 d         -10.461 206.770 118.592  0.00  0.00     0.055 A 
ATOM     22  C21  11 d         -11.637 206.003 118.546  0.00  0.00     0.031 A 
ATOM     23  C22  11 d         -12.604 206.259 117.562  0.00  0.00     0.002 A 
ATOM     24  C23  11 d         -12.404 207.294 116.636  0.00  0.00     0.002 A 
ATOM     25  C24  11 d         -11.236 208.070 116.693  0.00  0.00     0.032 A 
ATOM     26  N2   11 d          -9.545 206.581 119.596  0.00  0.00    -0.375 N 
ATOM     27  C25  11 d          -6.382 206.580 121.107  0.00  0.00     0.010 A 
ATOM     28  C26  11 d          -5.789 206.345 122.355  0.00  0.00     0.018 A 
ATOM     29  H14  11 d          -9.216 209.566 117.793  0.00  0.00     0.166 HD
ATOM     30  H19  11 d          -9.846 206.813 120.519  0.00  0.00     0.160 HD
ENDROOT
BRANCH   1  31
ATOM     31  C1   11 d          -5.715 205.170 124.577  0.00  0.00     0.292 C 
ATOM     32  O2   11 d          -6.395 205.175 125.636  0.00  0.00    -0.259 OA
BRANCH  31  33
ATOM     33  O3   11 d          -4.338 204.814 124.644  0.00  0.00    -0.323 OA
ATOM     34  C27  11 d          -4.157 203.448 124.200  0.00  0.00     0.213 C 
ENDBRANCH  31  33
ENDBRANCH   1  31
TORSDOF 2
ENDMDL
MODEL 16
REMARK VINA RESULT:      -6.2      3.520      6.126
REMARK  2 active torsions:
REMARK  status: ('A' for Active; 'I' for Inactive)
REMARK    1  A    between atoms: C1_1  and  C2_2 
REMARK    2  A    between atoms: C1_1  and  O3_31 
ROOT
ATOM      1  C2   11 d          -9.151 206.324 121.638  0.00  0.00     0.039 A 
ATOM      2  C3   11 d          -9.400 205.990 120.292  0.00  0.00     0.018 A 
ATOM      3  C4   11 d          -8.569 206.473 119.271  0.00  0.00     0.010 A 
ATOM      4  C5   11 d          -7.460 207.301 119.560  0.00  0.00    -0.031 A 
ATOM      5  C6   11 d          -6.567 207.757 118.395  0.00  0.00     0.154 C 
ATOM      6  C7   11 d          -5.249 208.474 118.808  0.00  0.00     0.037 C 
ATOM      7  C8   11 d          -4.291 207.692 119.683  0.00  0.00     0.160 C 
ATOM      8  O1   11 d          -4.575 206.522 120.047  0.00  0.00    -0.293 OA
ATOM      9  C9   11 d          -3.036 208.325 120.238  0.00  0.00     0.093 C 
ATOM     10  C10  11 d          -3.167 209.857 120.371  0.00  0.00     0.031 C 
ATOM     11  C11  11 d          -4.045 210.380 121.520  0.00  0.00    -0.053 A 
ATOM     12  C12  11 d          -4.361 211.759 121.592  0.00  0.00     0.007 A 
ATOM     13  C13  11 d          -5.207 212.261 122.593  0.00  0.00     0.001 A 
ATOM     14  C14  11 d          -5.744 211.399 123.556  0.00  0.00     0.000 A 
ATOM     15  C15  11 d          -5.428 210.037 123.523  0.00  0.00     0.001 A 
ATOM     16  C16  11 d          -4.585 209.532 122.521  0.00  0.00     0.007 A 
ATOM     17  C17  11 d          -3.580 210.367 118.971  0.00  0.00     0.067 C 
ATOM     18  C18  11 d          -4.846 209.734 118.406  0.00  0.00     0.022 C 
ATOM     19  N1   11 d          -5.515 210.541 117.490  0.00  0.00    -0.357 N 
ATOM     20  C19  11 d          -6.016 210.041 116.305  0.00  0.00     0.059 A 
ATOM     21  C20  11 d          -6.942 208.985 116.308  0.00  0.00     0.055 A 
ATOM     22  C21  11 d          -7.463 208.498 115.096  0.00  0.00     0.031 A 
ATOM     23  C22  11 d          -7.047 209.056 113.878  0.00  0.00     0.002 A 
ATOM     24  C23  11 d          -6.124 210.114 113.871  0.00  0.00     0.002 A 
ATOM     25  C24  11 d          -5.616 210.610 115.082  0.00  0.00     0.032 A 
ATOM     26  N2   11 d          -7.399 208.500 117.507  0.00  0.00    -0.375 N 
ATOM     27  C25  11 d          -7.243 207.661 120.906  0.00  0.00     0.010 A 
ATOM     28  C26  11 d          -8.068 207.176 121.931  0.00  0.00     0.018 A 
ATOM     29  H14  11 d          -5.621 211.513 117.674  0.00  0.00     0.166 HD
ATOM     30  H19  11 d          -8.351 208.695 117.728  0.00  0.00     0.160 HD
ENDROOT
BRANCH   1  31
ATOM     31  C1   11 d         -10.007 205.791 122.734  0.00  0.00     0.292 C 
ATOM     32  O2   11 d         -10.709 206.570 123.429  0.00  0.00    -0.259 OA
BRANCH  31  33
ATOM     33  O3   11 d         -10.117 204.387 122.949  0.00  0.00    -0.323 OA
ATOM     34  C27  11 d         -11.511 203.997 122.971  0.00  0.00     0.213 C 
ENDBRANCH  31  33
ENDBRANCH   1  31
TORSDOF 2
ENDMDL
MODEL 17
REMARK VINA RESULT:      -6.2      2.241      3.555
REMARK  2 active torsions:
REMARK  status: ('A' for Active; 'I' for Inactive)
REMARK    1  A    between atoms: C1_1  and  C2_2 
REMARK    2  A    between atoms: C1_1  and  O3_31 
ROOT
ATOM      1  C2   11 d          -7.311 205.781 119.366  0.00  0.00     0.039 A 
ATOM      2  C3   11 d          -6.652 204.661 119.910  0.00  0.00     0.018 A 
ATOM      3  C4   11 d          -5.349 204.336 119.508  0.00  0.00     0.010 A 
ATOM      4  C5   11 d          -4.660 205.118 118.554  0.00  0.00    -0.031 A 
ATOM      5  C6   11 d          -3.217 204.728 118.194  0.00  0.00     0.154 C 
ATOM      6  C7   11 d          -2.449 205.755 117.313  0.00  0.00     0.037 C 
ATOM      7  C8   11 d          -2.291 207.153 117.875  0.00  0.00     0.160 C 
ATOM      8  O1   11 d          -2.771 207.443 119.001  0.00  0.00    -0.293 OA
ATOM      9  C9   11 d          -1.664 208.262 117.063  0.00  0.00     0.093 C 
ATOM     10  C10  11 d          -1.812 208.026 115.544  0.00  0.00     0.031 C 
ATOM     11  C11  11 d          -3.207 208.252 114.940  0.00  0.00    -0.053 A 
ATOM     12  C12  11 d          -3.462 207.877 113.598  0.00  0.00     0.007 A 
ATOM     13  C13  11 d          -4.740 208.015 113.033  0.00  0.00     0.001 A 
ATOM     14  C14  11 d          -5.789 208.546 113.791  0.00  0.00     0.000 A 
ATOM     15  C15  11 d          -5.559 208.948 115.111  0.00  0.00     0.001 A 
ATOM     16  C16  11 d          -4.283 208.807 115.679  0.00  0.00     0.007 A 
ATOM     17  C17  11 d          -1.222 206.621 115.278  0.00  0.00     0.067 C 
ATOM     18  C18  11 d          -1.851 205.498 116.094  0.00  0.00     0.022 C 
ATOM     19  N1   11 d          -1.760 204.247 115.488  0.00  0.00    -0.357 N 
ATOM     20  C19  11 d          -1.402 203.118 116.195  0.00  0.00     0.059 A 
ATOM     21  C20  11 d          -2.142 202.709 117.316  0.00  0.00     0.055 A 
ATOM     22  C21  11 d          -1.781 201.544 118.015  0.00  0.00     0.031 A 
ATOM     23  C22  11 d          -0.669 200.793 117.603  0.00  0.00     0.002 A 
ATOM     24  C23  11 d           0.072 201.197 116.481  0.00  0.00     0.002 A 
ATOM     25  C24  11 d          -0.299 202.352 115.775  0.00  0.00     0.032 A 
ATOM     26  N2   11 d          -3.271 203.407 117.662  0.00  0.00    -0.375 N 
ATOM     27  C25  11 d          -5.344 206.214 117.987  0.00  0.00     0.010 A 
ATOM     28  C26  11 d          -6.645 206.547 118.389  0.00  0.00     0.018 A 
ATOM     29  H14  11 d          -1.934 204.158 114.512  0.00  0.00     0.166 HD
ATOM     30  H19  11 d          -4.141 202.938 117.520  0.00  0.00     0.160 HD
ENDROOT
BRANCH   1  31
ATOM     31  C1   11 d          -8.683 206.157 119.809  0.00  0.00     0.292 C 
ATOM     32  O2   11 d          -9.401 205.329 120.428  0.00  0.00    -0.259 OA
BRANCH  31  33
ATOM     33  O3   11 d          -9.167 207.484 119.623  0.00  0.00    -0.323 OA
ATOM     34  C27  11 d         -10.141 207.511 118.553  0.00  0.00     0.213 C 
ENDBRANCH  31  33
ENDBRANCH   1  31
TORSDOF 2
ENDMDL
MODEL 18
REMARK VINA RESULT:      -6.1      3.789      6.943
REMARK  2 active torsions:
REMARK  status: ('A' for Active; 'I' for Inactive)
REMARK    1  A    between atoms: C1_1  and  C2_2 
REMARK    2  A    between atoms: C1_1  and  O3_31 
ROOT
ATOM      1  C2   11 d          -6.963 209.393 115.532  0.00  0.00     0.039 A 
ATOM      2  C3   11 d          -5.985 210.406 115.587  0.00  0.00     0.018 A 
ATOM      3  C4   11 d          -5.133 210.514 116.695  0.00  0.00     0.010 A 
ATOM      4  C5   11 d          -5.227 209.616 117.782  0.00  0.00    -0.031 A 
ATOM      5  C6   11 d          -4.231 209.768 118.943  0.00  0.00     0.154 C 
ATOM      6  C7   11 d          -4.247 208.617 119.990  0.00  0.00     0.037 C 
ATOM      7  C8   11 d          -3.956 207.222 119.475  0.00  0.00     0.160 C 
ATOM      8  O1   11 d          -3.720 207.032 118.254  0.00  0.00    -0.293 OA
ATOM      9  C9   11 d          -4.055 206.014 120.377  0.00  0.00     0.093 C 
ATOM     10  C10  11 d          -5.031 206.242 121.551  0.00  0.00     0.031 C 
ATOM     11  C11  11 d          -6.532 206.228 121.218  0.00  0.00    -0.053 A 
ATOM     12  C12  11 d          -7.475 206.613 122.202  0.00  0.00     0.007 A 
ATOM     13  C13  11 d          -8.847 206.667 121.914  0.00  0.00     0.001 A 
ATOM     14  C14  11 d          -9.312 206.322 120.640  0.00  0.00     0.000 A 
ATOM     15  C15  11 d          -8.405 205.914 119.657  0.00  0.00     0.001 A 
ATOM     16  C16  11 d          -7.032 205.862 119.941  0.00  0.00     0.007 A 
ATOM     17  C17  11 d          -4.547 207.532 122.255  0.00  0.00     0.067 C 
ATOM     18  C18  11 d          -4.445 208.755 121.351  0.00  0.00     0.022 C 
ATOM     19  N1   11 d          -4.579 209.964 122.028  0.00  0.00    -0.357 N 
ATOM     20  C19  11 d          -3.747 211.036 121.779  0.00  0.00     0.059 A 
ATOM     21  C20  11 d          -3.640 211.577 120.488  0.00  0.00     0.055 A 
ATOM     22  C21  11 d          -2.806 212.683 120.250  0.00  0.00     0.031 A 
ATOM     23  C22  11 d          -2.064 213.242 121.302  0.00  0.00     0.002 A 
ATOM     24  C23  11 d          -2.170 212.706 122.596  0.00  0.00     0.002 A 
ATOM     25  C24  11 d          -3.015 211.611 122.834  0.00  0.00     0.032 A 
ATOM     26  N2   11 d          -4.429 211.072 119.485  0.00  0.00    -0.375 N 
ATOM     27  C25  11 d          -6.235 208.631 117.734  0.00  0.00     0.010 A 
ATOM     28  C26  11 d          -7.086 208.515 116.626  0.00  0.00     0.018 A 
ATOM     29  H14  11 d          -5.278 210.062 122.730  0.00  0.00     0.166 HD
ATOM     30  H19  11 d          -5.156 211.668 119.151  0.00  0.00     0.160 HD
ENDROOT
BRANCH   1  31
ATOM     31  C1   11 d          -7.852 209.246 114.346  0.00  0.00     0.292 C 
ATOM     32  O2   11 d          -8.724 210.118 114.092  0.00  0.00    -0.259 OA
BRANCH  31  33
ATOM     33  O3   11 d          -7.667 208.171 113.430  0.00  0.00    -0.323 OA
ATOM     34  C27  11 d          -7.760 208.657 112.070  0.00  0.00     0.213 C 
ENDBRANCH  31  33
ENDBRANCH   1  31
TORSDOF 2
ENDMDL
MODEL 19
REMARK VINA RESULT:      -6.0     10.874     16.788
REMARK  2 active torsions:
REMARK  status: ('A' for Active; 'I' for Inactive)
REMARK    1  A    between atoms: C1_1  and  C2_2 
REMARK    2  A    between atoms: C1_1  and  O3_31 
ROOT
ATOM      1  C2   11 d         -17.358 205.363 121.737  0.00  0.00     0.039 A 
ATOM      2  C3   11 d         -18.691 205.197 121.314  0.00  0.00     0.018 A 
ATOM      3  C4   11 d         -19.640 204.607 122.161  0.00  0.00     0.010 A 
ATOM      4  C5   11 d         -19.290 204.166 123.458  0.00  0.00    -0.031 A 
ATOM      5  C6   11 d         -20.392 203.568 124.348  0.00  0.00     0.154 C 
ATOM      6  C7   11 d         -19.987 203.313 125.828  0.00  0.00     0.037 C 
ATOM      7  C8   11 d         -19.522 204.515 126.626  0.00  0.00     0.160 C 
ATOM      8  O1   11 d         -19.472 205.652 126.090  0.00  0.00    -0.293 OA
ATOM      9  C9   11 d         -18.998 204.369 128.035  0.00  0.00     0.093 C 
ATOM     10  C10  11 d         -18.413 202.964 128.296  0.00  0.00     0.031 C 
ATOM     11  C11  11 d         -17.047 202.654 127.661  0.00  0.00    -0.053 A 
ATOM     12  C12  11 d         -16.537 201.333 127.700  0.00  0.00     0.007 A 
ATOM     13  C13  11 d         -15.322 201.002 127.080  0.00  0.00     0.001 A 
ATOM     14  C14  11 d         -14.580 201.987 126.420  0.00  0.00     0.000 A 
ATOM     15  C15  11 d         -15.048 203.305 126.388  0.00  0.00     0.001 A 
ATOM     16  C16  11 d         -16.264 203.637 127.004  0.00  0.00     0.007 A 
ATOM     17  C17  11 d         -19.532 201.966 127.920  0.00  0.00     0.067 C 
ATOM     18  C18  11 d         -20.065 202.107 126.499  0.00  0.00     0.022 C 
ATOM     19  N1   11 d         -20.603 200.931 125.984  0.00  0.00    -0.357 N 
ATOM     20  C19  11 d         -21.795 200.917 125.288  0.00  0.00     0.059 A 
ATOM     21  C20  11 d         -21.962 201.699 124.134  0.00  0.00     0.055 A 
ATOM     22  C21  11 d         -23.173 201.660 123.421  0.00  0.00     0.031 A 
ATOM     23  C22  11 d         -24.227 200.849 123.871  0.00  0.00     0.002 A 
ATOM     24  C23  11 d         -24.064 200.064 125.023  0.00  0.00     0.002 A 
ATOM     25  C24  11 d         -22.848 200.092 125.725  0.00  0.00     0.032 A 
ATOM     26  N2   11 d         -20.899 202.427 123.661  0.00  0.00    -0.375 N 
ATOM     27  C25  11 d         -17.944 204.300 123.855  0.00  0.00     0.010 A 
ATOM     28  C26  11 d         -16.992 204.895 123.014  0.00  0.00     0.018 A 
ATOM     29  H14  11 d         -20.135 200.066 126.134  0.00  0.00     0.166 HD
ATOM     30  H19  11 d         -20.495 202.113 122.805  0.00  0.00     0.160 HD
ENDROOT
BRANCH   1  31
ATOM     31  C1   11 d         -16.348 206.018 120.859  0.00  0.00     0.292 C 
ATOM     32  O2   11 d         -16.256 207.273 120.822  0.00  0.00    -0.259 OA
BRANCH  31  33
ATOM     33  O3   11 d         -15.412 205.236 120.123  0.00  0.00    -0.323 OA
ATOM     34  C27  11 d         -14.066 205.520 120.575  0.00  0.00     0.213 C 
ENDBRANCH  31  33
ENDBRANCH   1  31
TORSDOF 2
ENDMDL
MODEL 20
REMARK VINA RESULT:      -6.0      3.255      6.857
REMARK  2 active torsions:
REMARK  status: ('A' for Active; 'I' for Inactive)
REMARK    1  A    between atoms: C1_1  and  C2_2 
REMARK    2  A    between atoms: C1_1  and  O3_31 
ROOT
ATOM      1  C2   11 d          -2.763 202.890 119.596  0.00  0.00     0.039 A 
ATOM      2  C3   11 d          -2.073 203.168 118.399  0.00  0.00     0.018 A 
ATOM      3  C4   11 d          -2.382 204.310 117.647  0.00  0.00     0.010 A 
ATOM      4  C5   11 d          -3.388 205.211 118.064  0.00  0.00    -0.031 A 
ATOM      5  C6   11 d          -3.644 206.465 117.212  0.00  0.00     0.154 C 
ATOM      6  C7   11 d          -4.600 207.517 117.845  0.00  0.00     0.037 C 
ATOM      7  C8   11 d          -4.189 208.096 119.183  0.00  0.00     0.160 C 
ATOM      8  O1   11 d          -3.122 207.723 119.736  0.00  0.00    -0.293 OA
ATOM      9  C9   11 d          -5.092 209.038 119.944  0.00  0.00     0.093 C 
ATOM     10  C10  11 d          -6.581 208.832 119.588  0.00  0.00     0.031 C 
ATOM     11  C11  11 d          -7.262 207.577 120.157  0.00  0.00    -0.053 A 
ATOM     12  C12  11 d          -8.564 207.226 119.723  0.00  0.00     0.007 A 
ATOM     13  C13  11 d          -9.192 206.056 120.178  0.00  0.00     0.001 A 
ATOM     14  C14  11 d          -8.542 205.218 121.089  0.00  0.00     0.000 A 
ATOM     15  C15  11 d          -7.265 205.554 121.553  0.00  0.00     0.001 A 
ATOM     16  C16  11 d          -6.633 206.721 121.097  0.00  0.00     0.007 A 
ATOM     17  C17  11 d          -6.666 208.962 118.049  0.00  0.00     0.067 C 
ATOM     18  C18  11 d          -5.758 208.013 117.275  0.00  0.00     0.022 C 
ATOM     19  N1   11 d          -6.219 207.717 115.995  0.00  0.00    -0.357 N 
ATOM     20  C19  11 d          -5.378 207.706 114.901  0.00  0.00     0.059 A 
ATOM     21  C20  11 d          -4.249 206.870 114.872  0.00  0.00     0.055 A 
ATOM     22  C21  11 d          -3.412 206.851 113.743  0.00  0.00     0.031 A 
ATOM     23  C22  11 d          -3.693 207.679 112.646  0.00  0.00     0.002 A 
ATOM     24  C23  11 d          -4.822 208.514 112.669  0.00  0.00     0.002 A 
ATOM     25  C24  11 d          -5.665 208.521 113.791  0.00  0.00     0.032 A 
ATOM     26  N2   11 d          -4.029 206.009 115.917  0.00  0.00    -0.375 N 
ATOM     27  C25  11 d          -4.099 204.901 119.242  0.00  0.00     0.010 A 
ATOM     28  C26  11 d          -3.790 203.764 120.001  0.00  0.00     0.018 A 
ATOM     29  H14  11 d          -7.185 207.528 115.850  0.00  0.00     0.166 HD
ATOM     30  H19  11 d          -4.153 205.039 115.724  0.00  0.00     0.160 HD
ENDROOT
BRANCH   1  31
ATOM     31  C1   11 d          -2.421 201.698 120.421  0.00  0.00     0.292 C 
ATOM     32  O2   11 d          -1.315 201.115 120.270  0.00  0.00    -0.259 OA
BRANCH  31  33
ATOM     33  O3   11 d          -3.294 201.259 121.457  0.00  0.00    -0.323 OA
ATOM     34  C27  11 d          -2.693 201.507 122.751  0.00  0.00     0.213 C 
ENDBRANCH  31  33
ENDBRANCH   1  31
TORSDOF 2
ENDMDL
