MODEL 1
REMARK VINA RESULT:      -7.0      0.000      0.000
REMARK  1 active torsions:
REMARK  status: ('A' for Active; 'I' for Inactive)
REMARK    1  A    between atoms: C4_5  and  N3_8 
ROOT
ATOM      1  C1   11 d         -13.747 206.454 112.491  0.00  0.00    -0.013 A 
ATOM      2  C2   11 d         -13.221 206.108 113.771  0.00  0.00     0.099 A 
ATOM      3  C3   11 d         -14.236 205.855 114.693  0.00  0.00     0.129 A 
ATOM      4  N1   11 d         -14.055 205.501 115.987  0.00  0.00    -0.221 NA
ATOM      5  C4   11 d         -12.758 205.410 116.323  0.00  0.00     0.140 A 
ATOM      6  C5   11 d         -11.728 205.674 115.420  0.00  0.00     0.167 A 
ATOM      7  N2   11 d         -11.905 206.019 114.121  0.00  0.00    -0.254 NA
ATOM      8  S1   11 d         -15.787 206.038 114.014  0.00  0.00    -0.072 SA
ATOM      9  C6   11 d         -15.132 206.458 112.497  0.00  0.00    -0.007 A 
ATOM     10  C7   11 d         -15.997 206.759 111.313  0.00  0.00     0.047 C 
ATOM     11  C8   11 d         -15.177 207.444 110.208  0.00  0.00     0.005 C 
ATOM     12  C9   11 d         -13.817 206.761 109.999  0.00  0.00     0.005 C 
ATOM     13  C10  11 d         -12.955 206.807 111.271  0.00  0.00     0.042 C 
ENDROOT
BRANCH   5  14
ATOM     14  N3   11 d         -12.374 205.030 117.659  0.00  0.00    -0.383 N 
ATOM     15  H    11 d         -12.867 205.479 118.512  0.00  0.00     0.157 HD
ATOM     16  H    11 d         -11.594 204.295 117.808  0.00  0.00     0.157 HD
ENDBRANCH   5  14
TORSDOF 1
ENDMDL
MODEL 2
REMARK VINA RESULT:      -7.0      1.331      2.237
REMARK  1 active torsions:
REMARK  status: ('A' for Active; 'I' for Inactive)
REMARK    1  A    between atoms: C4_5  and  N3_8 
ROOT
ATOM      1  C1   11 d         -14.623 206.119 113.011  0.00  0.00    -0.013 A 
ATOM      2  C2   11 d         -14.161 205.802 114.322  0.00  0.00     0.099 A 
ATOM      3  C3   11 d         -12.795 206.043 114.459  0.00  0.00     0.129 A 
ATOM      4  N1   11 d         -12.068 205.843 115.584  0.00  0.00    -0.221 NA
ATOM      5  C4   11 d         -12.805 205.371 116.601  0.00  0.00     0.140 A 
ATOM      6  C5   11 d         -14.170 205.108 116.480  0.00  0.00     0.167 A 
ATOM      7  N2   11 d         -14.904 205.316 115.360  0.00  0.00    -0.254 NA
ATOM      8  S1   11 d         -12.096 206.639 113.025  0.00  0.00    -0.072 SA
ATOM      9  C6   11 d         -13.592 206.578 112.208  0.00  0.00    -0.007 A 
ATOM     10  C7   11 d         -13.739 207.015 110.785  0.00  0.00     0.047 C 
ATOM     11  C8   11 d         -15.075 206.524 110.206  0.00  0.00     0.005 C 
ATOM     12  C9   11 d         -16.236 206.739 111.189  0.00  0.00     0.005 C 
ATOM     13  C10  11 d         -16.022 205.967 112.501  0.00  0.00     0.042 C 
ENDROOT
BRANCH   5  14
ATOM     14  N3   11 d         -12.201 205.111 117.883  0.00  0.00    -0.383 N 
ATOM     15  H    11 d         -11.468 204.322 117.986  0.00  0.00     0.157 HD
ATOM     16  H    11 d         -12.481 205.707 118.743  0.00  0.00     0.157 HD
ENDBRANCH   5  14
TORSDOF 1
ENDMDL
MODEL 3
REMARK VINA RESULT:      -7.0      2.127      2.388
REMARK  1 active torsions:
REMARK  status: ('A' for Active; 'I' for Inactive)
REMARK    1  A    between atoms: C4_5  and  N3_8 
ROOT
ATOM      1  C1   11 d         -13.656 206.914 112.542  0.00  0.00    -0.013 A 
ATOM      2  C2   11 d         -12.668 207.479 113.402  0.00  0.00     0.099 A 
ATOM      3  C3   11 d         -13.213 207.865 114.626  0.00  0.00     0.129 A 
ATOM      4  N1   11 d         -12.530 208.428 115.651  0.00  0.00    -0.221 NA
ATOM      5  C4   11 d         -11.226 208.591 115.376  0.00  0.00     0.140 A 
ATOM      6  C5   11 d         -10.665 208.225 114.152  0.00  0.00     0.167 A 
ATOM      7  N2   11 d         -11.343 207.652 113.129  0.00  0.00    -0.254 NA
ATOM      8  S1   11 d         -14.884 207.549 114.720  0.00  0.00    -0.072 SA
ATOM      9  C6   11 d         -14.905 206.904 113.142  0.00  0.00    -0.007 A 
ATOM     10  C7   11 d         -16.154 206.363 112.520  0.00  0.00     0.047 C 
ATOM     11  C8   11 d         -15.968 206.188 111.004  0.00  0.00     0.005 C 
ATOM     12  C9   11 d         -14.614 205.547 110.665  0.00  0.00     0.005 C 
ATOM     13  C10  11 d         -13.437 206.411 111.149  0.00  0.00     0.042 C 
ENDROOT
BRANCH   5  14
ATOM     14  N3   11 d         -10.338 209.163 116.356  0.00  0.00    -0.383 N 
ATOM     15  H    11 d          -9.271 209.180 116.176  0.00  0.00     0.157 HD
ATOM     16  H    11 d         -10.739 209.577 117.273  0.00  0.00     0.157 HD
ENDBRANCH   5  14
TORSDOF 1
ENDMDL
MODEL 4
REMARK VINA RESULT:      -6.8      2.802      4.434
REMARK  1 active torsions:
REMARK  status: ('A' for Active; 'I' for Inactive)
REMARK    1  A    between atoms: C4_5  and  N3_8 
ROOT
ATOM      1  C1   11 d         -12.294 207.338 112.124  0.00  0.00    -0.013 A 
ATOM      2  C2   11 d         -13.640 206.888 111.978  0.00  0.00     0.099 A 
ATOM      3  C3   11 d         -14.335 206.946 113.185  0.00  0.00     0.129 A 
ATOM      4  N1   11 d         -15.629 206.590 113.367  0.00  0.00    -0.221 NA
ATOM      5  C4   11 d         -16.211 206.155 112.239  0.00  0.00     0.140 A 
ATOM      6  C5   11 d         -15.529 206.075 111.024  0.00  0.00     0.167 A 
ATOM      7  N2   11 d         -14.237 206.440 110.835  0.00  0.00    -0.254 NA
ATOM      8  S1   11 d         -13.371 207.532 114.460  0.00  0.00    -0.072 SA
ATOM      9  C6   11 d         -12.024 207.709 113.430  0.00  0.00    -0.007 A 
ATOM     10  C7   11 d         -10.714 208.244 113.918  0.00  0.00     0.047 C 
ATOM     11  C8   11 d          -9.602 207.961 112.896  0.00  0.00     0.005 C 
ATOM     12  C9   11 d         -10.056 208.263 111.460  0.00  0.00     0.005 C 
ATOM     13  C10  11 d         -11.256 207.395 111.047  0.00  0.00     0.042 C 
ENDROOT
BRANCH   5  14
ATOM     14  N3   11 d         -17.593 205.746 112.239  0.00  0.00    -0.383 N 
ATOM     15  H    11 d         -17.851 204.713 112.433  0.00  0.00     0.157 HD
ATOM     16  H    11 d         -18.372 206.473 112.047  0.00  0.00     0.157 HD
ENDBRANCH   5  14
TORSDOF 1
ENDMDL
MODEL 5
REMARK VINA RESULT:      -6.8      2.495      3.436
REMARK  1 active torsions:
REMARK  status: ('A' for Active; 'I' for Inactive)
REMARK    1  A    between atoms: C4_5  and  N3_8 
ROOT
ATOM      1  C1   11 d         -13.855 206.908 113.058  0.00  0.00    -0.013 A 
ATOM      2  C2   11 d         -12.776 207.517 113.764  0.00  0.00     0.099 A 
ATOM      3  C3   11 d         -11.615 207.558 112.993  0.00  0.00     0.129 A 
ATOM      4  N1   11 d         -10.427 208.078 113.384  0.00  0.00    -0.221 NA
ATOM      5  C4   11 d         -10.463 208.571 114.632  0.00  0.00     0.140 A 
ATOM      6  C5   11 d         -11.610 208.525 115.425  0.00  0.00     0.167 A 
ATOM      7  N2   11 d         -12.803 208.016 115.035  0.00  0.00    -0.254 NA
ATOM      8  S1   11 d         -11.838 206.870 111.451  0.00  0.00    -0.072 SA
ATOM      9  C6   11 d         -13.468 206.506 111.791  0.00  0.00    -0.007 A 
ATOM     10  C7   11 d         -14.363 205.852 110.785  0.00  0.00     0.047 C 
ATOM     11  C8   11 d         -15.638 205.324 111.462  0.00  0.00     0.005 C 
ATOM     12  C9   11 d         -16.226 206.345 112.448  0.00  0.00     0.005 C 
ATOM     13  C10  11 d         -15.240 206.677 113.580  0.00  0.00     0.042 C 
ENDROOT
BRANCH   5  14
ATOM     14  N3   11 d          -9.291 209.177 115.212  0.00  0.00    -0.383 N 
ATOM     15  H    11 d          -8.532 208.557 115.672  0.00  0.00     0.157 HD
ATOM     16  H    11 d          -9.170 210.253 115.186  0.00  0.00     0.157 HD
ENDBRANCH   5  14
TORSDOF 1
ENDMDL
MODEL 6
REMARK VINA RESULT:      -6.6      2.250      3.212
REMARK  1 active torsions:
REMARK  status: ('A' for Active; 'I' for Inactive)
REMARK    1  A    between atoms: C4_5  and  N3_8 
ROOT
ATOM      1  C1   11 d         -11.586 207.313 112.732  0.00  0.00    -0.013 A 
ATOM      2  C2   11 d         -12.481 206.793 113.714  0.00  0.00     0.099 A 
ATOM      3  C3   11 d         -13.537 206.094 113.128  0.00  0.00     0.129 A 
ATOM      4  N1   11 d         -14.544 205.483 113.796  0.00  0.00    -0.221 NA
ATOM      5  C4   11 d         -14.437 205.613 115.128  0.00  0.00     0.140 A 
ATOM      6  C5   11 d         -13.397 206.321 115.732  0.00  0.00     0.167 A 
ATOM      7  N2   11 d         -12.382 206.925 115.068  0.00  0.00    -0.254 NA
ATOM      8  S1   11 d         -13.437 206.077 111.428  0.00  0.00    -0.072 SA
ATOM      9  C6   11 d         -12.002 206.997 111.449  0.00  0.00    -0.007 A 
ATOM     10  C7   11 d         -11.280 207.374 110.194  0.00  0.00     0.047 C 
ATOM     11  C8   11 d         -10.251 208.479 110.476  0.00  0.00     0.005 C 
ATOM     12  C9   11 d          -9.449 208.200 111.756  0.00  0.00     0.005 C 
ATOM     13  C10  11 d         -10.358 208.128 112.994  0.00  0.00     0.042 C 
ENDROOT
BRANCH   5  14
ATOM     14  N3   11 d         -15.414 205.015 116.001  0.00  0.00    -0.383 N 
ATOM     15  H    11 d         -15.712 203.985 115.854  0.00  0.00     0.157 HD
ATOM     16  H    11 d         -15.848 205.595 116.805  0.00  0.00     0.157 HD
ENDBRANCH   5  14
TORSDOF 1
ENDMDL
MODEL 7
REMARK VINA RESULT:      -6.3      2.281      4.951
REMARK  1 active torsions:
REMARK  status: ('A' for Active; 'I' for Inactive)
REMARK    1  A    between atoms: C4_5  and  N3_8 
ROOT
ATOM      1  C1   11 d         -13.046 206.079 114.087  0.00  0.00    -0.013 A 
ATOM      2  C2   11 d         -13.343 206.429 112.736  0.00  0.00     0.099 A 
ATOM      3  C3   11 d         -14.717 206.527 112.521  0.00  0.00     0.129 A 
ATOM      4  N1   11 d         -15.310 206.846 111.346  0.00  0.00    -0.221 NA
ATOM      5  C4   11 d         -14.424 207.068 110.362  0.00  0.00     0.140 A 
ATOM      6  C5   11 d         -13.047 206.960 110.553  0.00  0.00     0.167 A 
ATOM      7  N2   11 d         -12.449 206.652 111.730  0.00  0.00    -0.254 NA
ATOM      8  S1   11 d         -15.618 206.199 113.928  0.00  0.00    -0.072 SA
ATOM      9  C6   11 d         -14.202 205.919 114.834  0.00  0.00    -0.007 A 
ATOM     10  C7   11 d         -14.244 205.571 116.289  0.00  0.00     0.047 C 
ATOM     11  C8   11 d         -12.882 205.029 116.752  0.00  0.00     0.005 C 
ATOM     12  C9   11 d         -11.717 205.870 116.207  0.00  0.00     0.005 C 
ATOM     13  C10  11 d         -11.684 205.869 114.670  0.00  0.00     0.042 C 
ENDROOT
BRANCH   5  14
ATOM     14  N3   11 d         -14.874 207.433 109.042  0.00  0.00    -0.383 N 
ATOM     15  H    11 d         -15.237 206.672 108.364  0.00  0.00     0.157 HD
ATOM     16  H    11 d         -14.848 208.470 108.730  0.00  0.00     0.157 HD
ENDBRANCH   5  14
TORSDOF 1
ENDMDL
MODEL 8
REMARK VINA RESULT:      -6.3      2.532      5.399
REMARK  1 active torsions:
REMARK  status: ('A' for Active; 'I' for Inactive)
REMARK    1  A    between atoms: C4_5  and  N3_8 
ROOT
ATOM      1  C1   11 d         -14.007 205.893 114.334  0.00  0.00    -0.013 A 
ATOM      2  C2   11 d         -14.377 206.266 113.008  0.00  0.00     0.099 A 
ATOM      3  C3   11 d         -13.266 206.619 112.243  0.00  0.00     0.129 A 
ATOM      4  N1   11 d         -13.294 207.014 110.949  0.00  0.00    -0.221 NA
ATOM      5  C4   11 d         -14.536 207.039 110.441  0.00  0.00     0.140 A 
ATOM      6  C5   11 d         -15.662 206.705 111.194  0.00  0.00     0.167 A 
ATOM      7  N2   11 d         -15.638 206.299 112.486  0.00  0.00    -0.254 NA
ATOM      8  S1   11 d         -11.812 206.500 113.122  0.00  0.00    -0.072 SA
ATOM      9  C6   11 d         -12.638 205.987 114.522  0.00  0.00    -0.007 A 
ATOM     10  C7   11 d         -11.919 205.650 115.791  0.00  0.00     0.047 C 
ATOM     11  C8   11 d         -12.908 205.572 116.965  0.00  0.00     0.005 C 
ATOM     12  C9   11 d         -14.182 204.801 116.589  0.00  0.00     0.005 C 
ATOM     13  C10  11 d         -14.936 205.477 115.432  0.00  0.00     0.042 C 
ENDROOT
BRANCH   5  14
ATOM     14  N3   11 d         -14.757 207.423 109.070  0.00  0.00    -0.383 N 
ATOM     15  H    11 d         -14.257 208.293 108.663  0.00  0.00     0.157 HD
ATOM     16  H    11 d         -15.423 206.840 108.446  0.00  0.00     0.157 HD
ENDBRANCH   5  14
TORSDOF 1
ENDMDL
MODEL 9
REMARK VINA RESULT:      -6.3      2.336      3.180
REMARK  1 active torsions:
REMARK  status: ('A' for Active; 'I' for Inactive)
REMARK    1  A    between atoms: C4_5  and  N3_8 
ROOT
ATOM      1  C1   11 d         -12.215 207.019 112.501  0.00  0.00    -0.013 A 
ATOM      2  C2   11 d         -12.910 206.610 113.678  0.00  0.00     0.099 A 
ATOM      3  C3   11 d         -12.311 207.116 114.830  0.00  0.00     0.129 A 
ATOM      4  N1   11 d         -12.739 206.907 116.098  0.00  0.00    -0.221 NA
ATOM      5  C4   11 d         -13.837 206.136 116.154  0.00  0.00     0.140 A 
ATOM      6  C5   11 d         -14.442 205.607 115.013  0.00  0.00     0.167 A 
ATOM      7  N2   11 d         -14.023 205.822 113.743  0.00  0.00    -0.254 NA
ATOM      8  S1   11 d         -10.938 208.063 114.485  0.00  0.00    -0.072 SA
ATOM      9  C6   11 d         -11.119 207.807 112.808  0.00  0.00    -0.007 A 
ATOM     10  C7   11 d         -10.189 208.417 111.806  0.00  0.00     0.047 C 
ATOM     11  C8   11 d         -10.361 207.744 110.435  0.00  0.00     0.005 C 
ATOM     12  C9   11 d         -11.841 207.550 110.075  0.00  0.00     0.005 C 
ATOM     13  C10  11 d         -12.562 206.650 111.092  0.00  0.00     0.042 C 
ENDROOT
BRANCH   5  14
ATOM     14  N3   11 d         -14.443 205.818 117.422  0.00  0.00    -0.383 N 
ATOM     15  H    11 d         -13.831 205.461 118.240  0.00  0.00     0.157 HD
ATOM     16  H    11 d         -15.511 205.937 117.556  0.00  0.00     0.157 HD
ENDBRANCH   5  14
TORSDOF 1
ENDMDL
MODEL 10
REMARK VINA RESULT:      -6.2      3.374      4.240
REMARK  1 active torsions:
REMARK  status: ('A' for Active; 'I' for Inactive)
REMARK    1  A    between atoms: C4_5  and  N3_8 
ROOT
ATOM      1  C1   11 d         -11.269 207.552 112.836  0.00  0.00    -0.013 A 
ATOM      2  C2   11 d         -11.019 207.724 114.230  0.00  0.00     0.099 A 
ATOM      3  C3   11 d          -9.910 208.537 114.457  0.00  0.00     0.129 A 
ATOM      4  N1   11 d          -9.424 208.888 115.671  0.00  0.00    -0.221 NA
ATOM      5  C4   11 d         -10.132 208.362 116.684  0.00  0.00     0.140 A 
ATOM      6  C5   11 d         -11.235 207.534 116.478  0.00  0.00     0.167 A 
ATOM      7  N2   11 d         -11.730 207.188 115.264  0.00  0.00    -0.254 NA
ATOM      8  S1   11 d          -9.194 209.074 113.008  0.00  0.00    -0.072 SA
ATOM      9  C6   11 d         -10.339 208.232 112.067  0.00  0.00    -0.007 A 
ATOM     10  C7   11 d         -10.327 208.275 110.571  0.00  0.00     0.047 C 
ATOM     11  C8   11 d         -11.219 207.165 109.993  0.00  0.00     0.005 C 
ATOM     12  C9   11 d         -12.559 207.064 110.737  0.00  0.00     0.005 C 
ATOM     13  C10  11 d         -12.361 206.730 112.225  0.00  0.00     0.042 C 
ENDROOT
BRANCH   5  14
ATOM     14  N3   11 d          -9.769 208.639 118.050  0.00  0.00    -0.383 N 
ATOM     15  H    11 d         -10.380 208.260 118.860  0.00  0.00     0.157 HD
ATOM     16  H    11 d          -8.885 209.225 118.267  0.00  0.00     0.157 HD
ENDBRANCH   5  14
TORSDOF 1
ENDMDL
