MODEL 1
REMARK VINA RESULT:     -12.8      0.000      0.000
REMARK  3 active torsions:
REMARK  status: ('A' for Active; 'I' for Inactive)
REMARK    1  A    between atoms: C1_1  and  C2_2 
REMARK       I    between atoms: C2_2  and  N1_4 
REMARK    2  A    between atoms: C5_8  and  N2_9 
REMARK       I    between atoms: N2_9  and  C6_10 
REMARK    3  A    between atoms: C6_10  and  C7_11 
ROOT
ATOM      1  N2   11 d         -13.368 205.280 116.216  0.00  0.00    -0.316 N 
ATOM      2  C6   11 d         -13.802 206.400 115.452  0.00  0.00     0.257 C 
ATOM      3  O4   11 d         -14.790 207.113 115.849  0.00  0.00    -0.267 OA
ATOM      4  H3   11 d         -12.537 204.686 115.883  0.00  0.00     0.169 HD
ENDROOT
BRANCH   2   5
ATOM      5  C7   11 d         -13.106 206.731 114.181  0.00  0.00     0.047 A 
ATOM      6  C8   11 d         -13.641 206.485 112.894  0.00  0.00     0.008 A 
ATOM      7  C9   11 d         -12.860 206.842 111.764  0.00  0.00     0.068 A 
ATOM      8  C22  11 d         -14.925 205.928 112.684  0.00  0.00     0.015 A 
ATOM      9  N3   11 d         -11.628 207.400 111.931  0.00  0.00    -0.247 NA
ATOM     10  C19  11 d         -13.350 206.633 110.465  0.00  0.00     0.032 A 
ATOM     11  C10  11 d         -11.076 207.652 113.156  0.00  0.00     0.069 A 
ATOM     12  C11  11 d          -9.702 208.250 113.228  0.00  0.00    -0.004 A 
ATOM     13  C18  11 d         -11.828 207.311 114.299  0.00  0.00     0.050 A 
ATOM     14  C12  11 d          -9.122 208.687 114.451  0.00  0.00     0.053 A 
ATOM     15  C17  11 d          -8.932 208.387 112.039  0.00  0.00     0.017 A 
ATOM     16  C13  11 d          -7.829 209.215 114.452  0.00  0.00     0.105 A 
ATOM     17  C14  11 d          -7.104 209.329 113.301  0.00  0.00     0.105 A 
ATOM     18  O3   11 d          -7.113 209.649 115.576  0.00  0.00    -0.323 OA
ATOM     19  O2   11 d          -5.823 209.850 113.531  0.00  0.00    -0.323 OA
ATOM     20  C16  11 d          -7.629 208.923 112.073  0.00  0.00     0.040 A 
ATOM     21  C15  11 d          -5.822 210.001 114.987  0.00  0.00     0.352 A 
ATOM     22  C20  11 d         -14.620 206.073 110.275  0.00  0.00     0.002 A 
ATOM     23  C21  11 d         -15.406 205.724 111.381  0.00  0.00     0.001 A 
ENDBRANCH   2   5
BRANCH   1  24
ATOM     24  C5   11 d         -14.017 204.886 117.462  0.00  0.00     0.093 A 
ATOM     25  S1   11 d         -14.932 203.719 117.627  0.00  0.00    -0.075 SA
ATOM     26  C4   11 d         -15.353 203.798 119.065  0.00  0.00    -0.008 A 
ATOM     27  C3   11 d         -14.691 204.887 119.662  0.00  0.00    -0.026 A 
ATOM     28  C23  11 d         -16.221 202.739 119.696  0.00  0.00     0.046 C 
ATOM     29  C1   11 d         -13.912 205.549 118.682  0.00  0.00     0.073 A 
ATOM     30  C28  11 d         -14.866 205.420 121.076  0.00  0.00     0.041 C 
ATOM     31  C27  11 d         -16.140 205.075 121.861  0.00  0.00     0.005 C 
ATOM     32  C26  11 d         -17.468 205.267 121.099  0.00  0.00     0.000 C 
ATOM     33  C25  11 d         -18.222 203.953 120.837  0.00  0.00     0.000 C 
ATOM     34  C24  11 d         -17.711 203.116 119.656  0.00  0.00     0.005 C 
BRANCH  29  35
ATOM     35  C2   11 d         -13.069 206.763 118.858  0.00  0.00     0.252 C 
ATOM     36  O1   11 d         -11.884 206.665 119.329  0.00  0.00    -0.268 OA
ATOM     37  N1   11 d         -13.554 208.046 118.515  0.00  0.00    -0.366 N 
ATOM     38  H1   11 d         -14.539 208.175 118.109  0.00  0.00     0.159 HD
ATOM     39  H2   11 d         -12.927 208.905 118.662  0.00  0.00     0.159 HD
ENDBRANCH  29  35
ENDBRANCH   1  24
TORSDOF 3
ENDMDL
MODEL 2
REMARK VINA RESULT:     -11.8      1.393      2.403
REMARK  3 active torsions:
REMARK  status: ('A' for Active; 'I' for Inactive)
REMARK    1  A    between atoms: C1_1  and  C2_2 
REMARK       I    between atoms: C2_2  and  N1_4 
REMARK    2  A    between atoms: C5_8  and  N2_9 
REMARK       I    between atoms: N2_9  and  C6_10 
REMARK    3  A    between atoms: C6_10  and  C7_11 
ROOT
ATOM      1  N2   11 d         -13.198 205.921 116.786  0.00  0.00    -0.316 N 
ATOM      2  C6   11 d         -13.777 206.747 115.783  0.00  0.00     0.257 C 
ATOM      3  O4   11 d         -14.900 207.329 115.988  0.00  0.00    -0.267 OA
ATOM      4  H3   11 d         -12.255 205.437 116.614  0.00  0.00     0.169 HD
ENDROOT
BRANCH   2   5
ATOM      5  C7   11 d         -13.070 206.924 114.487  0.00  0.00     0.047 A 
ATOM      6  C8   11 d         -13.598 206.530 113.234  0.00  0.00     0.008 A 
ATOM      7  C9   11 d         -12.808 206.749 112.075  0.00  0.00     0.068 A 
ATOM      8  C22  11 d         -14.883 205.958 113.081  0.00  0.00     0.015 A 
ATOM      9  N3   11 d         -11.575 207.318 112.183  0.00  0.00    -0.247 NA
ATOM     10  C19  11 d         -13.290 206.391 110.806  0.00  0.00     0.032 A 
ATOM     11  C10  11 d         -11.030 207.710 113.374  0.00  0.00     0.069 A 
ATOM     12  C11  11 d          -9.654 208.307 113.385  0.00  0.00    -0.004 A 
ATOM     13  C18  11 d         -11.791 207.509 114.544  0.00  0.00     0.050 A 
ATOM     14  C12  11 d          -9.079 208.883 114.553  0.00  0.00     0.053 A 
ATOM     15  C17  11 d          -8.875 208.301 112.193  0.00  0.00     0.017 A 
ATOM     16  C13  11 d          -7.783 209.402 114.500  0.00  0.00     0.105 A 
ATOM     17  C14  11 d          -7.051 209.377 113.349  0.00  0.00     0.105 A 
ATOM     18  O3   11 d          -7.073 209.962 115.570  0.00  0.00    -0.323 OA
ATOM     19  O2   11 d          -5.769 209.917 113.525  0.00  0.00    -0.323 OA
ATOM     20  C16  11 d          -7.570 208.831 112.173  0.00  0.00     0.040 A 
ATOM     21  C15  11 d          -5.776 210.238 114.953  0.00  0.00     0.352 A 
ATOM     22  C20  11 d         -14.563 205.818 110.674  0.00  0.00     0.002 A 
ATOM     23  C21  11 d         -15.357 205.604 111.808  0.00  0.00     0.001 A 
ENDBRANCH   2   5
BRANCH   1  24
ATOM     24  C5   11 d         -13.845 205.687 118.074  0.00  0.00     0.093 A 
ATOM     25  S1   11 d         -13.757 206.587 119.260  0.00  0.00    -0.075 SA
ATOM     26  C4   11 d         -14.545 205.866 120.313  0.00  0.00    -0.008 A 
ATOM     27  C3   11 d         -15.068 204.688 119.747  0.00  0.00    -0.026 A 
ATOM     28  C23  11 d         -14.798 206.474 121.670  0.00  0.00     0.046 C 
ATOM     29  C1   11 d         -14.618 204.579 118.409  0.00  0.00     0.073 A 
ATOM     30  C28  11 d         -15.855 203.590 120.446  0.00  0.00     0.041 C 
ATOM     31  C27  11 d         -15.768 203.454 121.973  0.00  0.00     0.005 C 
ATOM     32  C26  11 d         -14.345 203.491 122.569  0.00  0.00     0.000 C 
ATOM     33  C25  11 d         -14.079 204.719 123.453  0.00  0.00     0.000 C 
ATOM     34  C24  11 d         -13.758 206.022 122.707  0.00  0.00     0.005 C 
BRANCH  29  35
ATOM     35  C2   11 d         -14.902 203.485 117.441  0.00  0.00     0.252 C 
ATOM     36  O1   11 d         -15.960 203.515 116.722  0.00  0.00    -0.268 OA
ATOM     37  N1   11 d         -14.020 202.390 117.295  0.00  0.00    -0.366 N 
ATOM     38  H1   11 d         -13.117 202.326 117.871  0.00  0.00     0.159 HD
ATOM     39  H2   11 d         -14.256 201.610 116.595  0.00  0.00     0.159 HD
ENDBRANCH  29  35
ENDBRANCH   1  24
TORSDOF 3
ENDMDL
MODEL 3
REMARK VINA RESULT:     -10.5      3.629      8.825
REMARK  3 active torsions:
REMARK  status: ('A' for Active; 'I' for Inactive)
REMARK    1  A    between atoms: C1_1  and  C2_2 
REMARK       I    between atoms: C2_2  and  N1_4 
REMARK    2  A    between atoms: C5_8  and  N2_9 
REMARK       I    between atoms: N2_9  and  C6_10 
REMARK    3  A    between atoms: C6_10  and  C7_11 
ROOT
ATOM      1  N2   11 d          -9.192 207.150 117.229  0.00  0.00    -0.316 N 
ATOM      2  C6   11 d         -10.330 207.823 116.703  0.00  0.00     0.257 C 
ATOM      3  O4   11 d         -10.453 209.092 116.835  0.00  0.00    -0.267 OA
ATOM      4  H3   11 d          -9.090 206.087 117.114  0.00  0.00     0.169 HD
ENDROOT
BRANCH   2   5
ATOM      5  C7   11 d         -11.383 207.040 116.004  0.00  0.00     0.047 A 
ATOM      6  C8   11 d         -11.550 207.010 114.599  0.00  0.00     0.008 A 
ATOM      7  C9   11 d         -12.608 206.226 114.067  0.00  0.00     0.068 A 
ATOM      8  C22  11 d         -10.699 207.699 113.704  0.00  0.00     0.015 A 
ATOM      9  N3   11 d         -13.434 205.533 114.900  0.00  0.00    -0.247 NA
ATOM     10  C19  11 d         -12.809 206.150 112.680  0.00  0.00     0.032 A 
ATOM     11  C10  11 d         -13.306 205.537 116.261  0.00  0.00     0.069 A 
ATOM     12  C11  11 d         -14.282 204.755 117.088  0.00  0.00    -0.004 A 
ATOM     13  C18  11 d         -12.263 206.304 116.821  0.00  0.00     0.050 A 
ATOM     14  C12  11 d         -14.127 204.579 118.491  0.00  0.00     0.053 A 
ATOM     15  C17  11 d         -15.418 204.165 116.464  0.00  0.00     0.017 A 
ATOM     16  C13  11 d         -15.086 203.858 119.206  0.00  0.00     0.105 A 
ATOM     17  C14  11 d         -16.172 203.308 118.589  0.00  0.00     0.105 A 
ATOM     18  O3   11 d         -15.091 203.634 120.590  0.00  0.00    -0.323 OA
ATOM     19  O2   11 d         -17.023 202.658 119.495  0.00  0.00    -0.323 OA
ATOM     20  C16  11 d         -16.368 203.444 117.213  0.00  0.00     0.040 A 
ATOM     21  C15  11 d         -16.352 202.916 120.769  0.00  0.00     0.352 A 
ATOM     22  C20  11 d         -11.960 206.846 111.807  0.00  0.00     0.002 A 
ATOM     23  C21  11 d         -10.908 207.616 112.318  0.00  0.00     0.001 A 
ENDBRANCH   2   5
BRANCH   1  24
ATOM     24  C5   11 d          -8.130 207.852 117.943  0.00  0.00     0.093 A 
ATOM     25  S1   11 d          -7.976 207.904 119.425  0.00  0.00    -0.075 SA
ATOM     26  C4   11 d          -6.777 208.784 119.627  0.00  0.00    -0.008 A 
ATOM     27  C3   11 d          -6.277 209.150 118.363  0.00  0.00    -0.026 A 
ATOM     28  C23  11 d          -6.199 209.036 120.997  0.00  0.00     0.046 C 
ATOM     29  C1   11 d          -7.116 208.605 117.360  0.00  0.00     0.073 A 
ATOM     30  C28  11 d          -5.133 210.103 118.055  0.00  0.00     0.041 C 
ATOM     31  C27  11 d          -4.691 211.120 119.118  0.00  0.00     0.005 C 
ATOM     32  C26  11 d          -5.826 211.920 119.791  0.00  0.00     0.000 C 
ATOM     33  C25  11 d          -5.989 211.614 121.288  0.00  0.00     0.000 C 
ATOM     34  C24  11 d          -6.751 210.325 121.627  0.00  0.00     0.005 C 
BRANCH  29  35
ATOM     35  C2   11 d          -6.984 208.757 115.885  0.00  0.00     0.252 C 
ATOM     36  O1   11 d          -6.172 208.019 115.227  0.00  0.00    -0.268 OA
ATOM     37  N1   11 d          -7.745 209.717 115.177  0.00  0.00    -0.366 N 
ATOM     38  H1   11 d          -8.444 210.352 115.685  0.00  0.00     0.159 HD
ATOM     39  H2   11 d          -7.622 209.810 114.115  0.00  0.00     0.159 HD
ENDBRANCH  29  35
ENDBRANCH   1  24
TORSDOF 3
ENDMDL
MODEL 4
REMARK VINA RESULT:     -10.5      3.533      7.844
REMARK  3 active torsions:
REMARK  status: ('A' for Active; 'I' for Inactive)
REMARK    1  A    between atoms: C1_1  and  C2_2 
REMARK       I    between atoms: C2_2  and  N1_4 
REMARK    2  A    between atoms: C5_8  and  N2_9 
REMARK       I    between atoms: N2_9  and  C6_10 
REMARK    3  A    between atoms: C6_10  and  C7_11 
ROOT
ATOM      1  N2   11 d         -11.230 206.314 115.093  0.00  0.00    -0.316 N 
ATOM      2  C6   11 d         -10.952 207.599 115.637  0.00  0.00     0.257 C 
ATOM      3  O4   11 d         -11.705 208.599 115.359  0.00  0.00    -0.267 OA
ATOM      4  H3   11 d         -10.601 205.477 115.330  0.00  0.00     0.169 HD
ENDROOT
BRANCH   2   5
ATOM      5  C7   11 d          -9.774 207.776 116.525  0.00  0.00     0.047 A 
ATOM      6  C8   11 d          -8.619 208.516 116.175  0.00  0.00     0.008 A 
ATOM      7  C9   11 d          -7.561 208.593 117.119  0.00  0.00     0.068 A 
ATOM      8  C22  11 d          -8.484 209.203 114.946  0.00  0.00     0.015 A 
ATOM      9  N3   11 d          -7.667 207.961 118.321  0.00  0.00    -0.247 NA
ATOM     10  C19  11 d          -6.400 209.326 116.828  0.00  0.00     0.032 A 
ATOM     11  C10  11 d          -8.764 207.236 118.695  0.00  0.00     0.069 A 
ATOM     12  C11  11 d          -8.770 206.562 120.035  0.00  0.00    -0.004 A 
ATOM     13  C18  11 d          -9.834 207.143 117.782  0.00  0.00     0.050 A 
ATOM     14  C12  11 d          -9.926 205.924 120.564  0.00  0.00     0.053 A 
ATOM     15  C17  11 d          -7.581 206.542 120.818  0.00  0.00     0.017 A 
ATOM     16  C13  11 d          -9.858 205.294 121.810  0.00  0.00     0.105 A 
ATOM     17  C14  11 d          -8.705 205.280 122.539  0.00  0.00     0.105 A 
ATOM     18  O3   11 d         -10.895 204.595 122.441  0.00  0.00    -0.323 OA
ATOM     19  O2   11 d          -8.846 204.567 123.738  0.00  0.00    -0.323 OA
ATOM     20  C16  11 d          -7.544 205.898 122.070  0.00  0.00     0.040 A 
ATOM     21  C15  11 d         -10.227 204.093 123.641  0.00  0.00     0.352 A 
ATOM     22  C20  11 d          -6.279 209.994 115.601  0.00  0.00     0.002 A 
ATOM     23  C21  11 d          -7.319 209.934 114.664  0.00  0.00     0.001 A 
ENDBRANCH   2   5
BRANCH   1  24
ATOM     24  C5   11 d         -12.358 206.072 114.199  0.00  0.00     0.093 A 
ATOM     25  S1   11 d         -12.262 205.866 112.725  0.00  0.00    -0.075 SA
ATOM     26  C4   11 d         -13.691 205.717 112.292  0.00  0.00    -0.008 A 
ATOM     27  C3   11 d         -14.510 205.784 113.436  0.00  0.00    -0.026 A 
ATOM     28  C23  11 d         -14.059 205.393 110.866  0.00  0.00     0.046 C 
ATOM     29  C1   11 d         -13.699 206.025 114.571  0.00  0.00     0.073 A 
ATOM     30  C28  11 d         -16.030 205.775 113.494  0.00  0.00     0.041 C 
ATOM     31  C27  11 d         -16.835 206.141 112.238  0.00  0.00     0.005 C 
ATOM     32  C26  11 d         -16.383 207.420 111.502  0.00  0.00     0.000 C 
ATOM     33  C25  11 d         -15.816 207.154 110.099  0.00  0.00     0.000 C 
ATOM     34  C24  11 d         -14.364 206.658 110.049  0.00  0.00     0.005 C 
BRANCH  29  35
ATOM     35  C2   11 d         -14.139 206.194 115.983  0.00  0.00     0.252 C 
ATOM     36  O1   11 d         -14.171 205.192 116.777  0.00  0.00    -0.268 OA
ATOM     37  N1   11 d         -14.534 207.458 116.479  0.00  0.00    -0.366 N 
ATOM     38  H1   11 d         -14.517 208.329 115.852  0.00  0.00     0.159 HD
ATOM     39  H2   11 d         -14.856 207.549 117.499  0.00  0.00     0.159 HD
ENDBRANCH  29  35
ENDBRANCH   1  24
TORSDOF 3
ENDMDL
MODEL 5
REMARK VINA RESULT:     -10.2      4.007      7.649
REMARK  3 active torsions:
REMARK  status: ('A' for Active; 'I' for Inactive)
REMARK    1  A    between atoms: C1_1  and  C2_2 
REMARK       I    between atoms: C2_2  and  N1_4 
REMARK    2  A    between atoms: C5_8  and  N2_9 
REMARK       I    between atoms: N2_9  and  C6_10 
REMARK    3  A    between atoms: C6_10  and  C7_11 
ROOT
ATOM      1  N2   11 d          -9.394 208.005 114.248  0.00  0.00    -0.316 N 
ATOM      2  C6   11 d          -8.633 209.201 114.117  0.00  0.00     0.257 C 
ATOM      3  O4   11 d          -9.198 210.296 113.765  0.00  0.00    -0.267 OA
ATOM      4  H3   11 d          -8.918 207.090 114.547  0.00  0.00     0.169 HD
ENDROOT
BRANCH   2   5
ATOM      5  C7   11 d          -7.171 209.168 114.386  0.00  0.00     0.047 A 
ATOM      6  C8   11 d          -6.199 208.757 113.442  0.00  0.00     0.008 A 
ATOM      7  C9   11 d          -4.836 208.766 113.838  0.00  0.00     0.068 A 
ATOM      8  C22  11 d          -6.520 208.369 112.121  0.00  0.00     0.015 A 
ATOM      9  N3   11 d          -4.490 209.155 115.097  0.00  0.00    -0.247 NA
ATOM     10  C19  11 d          -3.830 208.382 112.937  0.00  0.00     0.032 A 
ATOM     11  C10  11 d          -5.398 209.557 116.037  0.00  0.00     0.069 A 
ATOM     12  C11  11 d          -4.913 209.946 117.402  0.00  0.00    -0.004 A 
ATOM     13  C18  11 d          -6.760 209.563 115.674  0.00  0.00     0.050 A 
ATOM     14  C12  11 d          -5.768 210.522 118.381  0.00  0.00     0.053 A 
ATOM     15  C17  11 d          -3.549 209.731 117.751  0.00  0.00     0.017 A 
ATOM     16  C13  11 d          -5.256 210.841 119.642  0.00  0.00     0.105 A 
ATOM     17  C14  11 d          -3.948 210.618 119.958  0.00  0.00     0.105 A 
ATOM     18  O3   11 d          -5.979 211.375 120.717  0.00  0.00    -0.323 OA
ATOM     19  O2   11 d          -3.654 210.977 121.282  0.00  0.00    -0.323 OA
ATOM     20  C16  11 d          -3.064 210.061 119.031  0.00  0.00     0.040 A 
ATOM     21  C15  11 d          -4.965 211.408 121.769  0.00  0.00     0.352 A 
ATOM     22  C20  11 d          -4.167 207.991 111.634  0.00  0.00     0.002 A 
ATOM     23  C21  11 d          -5.507 207.987 111.227  0.00  0.00     0.001 A 
ENDBRANCH   2   5
BRANCH   1  24
ATOM     24  C5   11 d         -10.828 207.960 113.981  0.00  0.00     0.093 A 
ATOM     25  S1   11 d         -11.899 207.988 115.019  0.00  0.00    -0.075 SA
ATOM     26  C4   11 d         -13.167 207.865 114.225  0.00  0.00    -0.008 A 
ATOM     27  C3   11 d         -12.831 207.821 112.858  0.00  0.00    -0.026 A 
ATOM     28  C23  11 d         -14.523 207.945 114.878  0.00  0.00     0.046 C 
ATOM     29  C1   11 d         -11.422 207.852 112.727  0.00  0.00     0.073 A 
ATOM     30  C28  11 d         -13.766 207.610 111.677  0.00  0.00     0.041 C 
ATOM     31  C27  11 d         -15.143 206.970 111.909  0.00  0.00     0.005 C 
ATOM     32  C26  11 d         -15.149 205.690 112.772  0.00  0.00     0.000 C 
ATOM     33  C25  11 d         -15.877 205.857 114.115  0.00  0.00     0.000 C 
ATOM     34  C24  11 d         -15.079 206.555 115.225  0.00  0.00     0.005 C 
BRANCH  29  35
ATOM     35  C2   11 d         -10.624 207.799 111.471  0.00  0.00     0.252 C 
ATOM     36  O1   11 d         -10.672 206.768 110.716  0.00  0.00    -0.268 OA
ATOM     37  N1   11 d          -9.796 208.879 111.085  0.00  0.00    -0.366 N 
ATOM     38  H1   11 d          -9.731 209.767 111.682  0.00  0.00     0.159 HD
ATOM     39  H2   11 d          -9.225 208.809 110.178  0.00  0.00     0.159 HD
ENDBRANCH  29  35
ENDBRANCH   1  24
TORSDOF 3
ENDMDL
MODEL 6
REMARK VINA RESULT:      -9.9      4.424      7.603
REMARK  3 active torsions:
REMARK  status: ('A' for Active; 'I' for Inactive)
REMARK    1  A    between atoms: C1_1  and  C2_2 
REMARK       I    between atoms: C2_2  and  N1_4 
REMARK    2  A    between atoms: C5_8  and  N2_9 
REMARK       I    between atoms: N2_9  and  C6_10 
REMARK    3  A    between atoms: C6_10  and  C7_11 
ROOT
ATOM      1  N2   11 d         -10.055 207.437 113.985  0.00  0.00    -0.316 N 
ATOM      2  C6   11 d          -9.281 208.607 114.225  0.00  0.00     0.257 C 
ATOM      3  O4   11 d          -9.774 209.769 114.004  0.00  0.00    -0.267 OA
ATOM      4  H3   11 d          -9.641 206.464 114.175  0.00  0.00     0.169 HD
ENDROOT
BRANCH   2   5
ATOM      5  C7   11 d          -7.888 208.470 114.726  0.00  0.00     0.047 A 
ATOM      6  C8   11 d          -7.543 208.370 116.096  0.00  0.00     0.008 A 
ATOM      7  C9   11 d          -6.169 208.255 116.434  0.00  0.00     0.068 A 
ATOM      8  C22  11 d          -8.502 208.351 117.135  0.00  0.00     0.015 A 
ATOM      9  N3   11 d          -5.220 208.249 115.456  0.00  0.00    -0.247 NA
ATOM     10  C19  11 d          -5.774 208.139 117.776  0.00  0.00     0.032 A 
ATOM     11  C10  11 d          -5.513 208.344 114.124  0.00  0.00     0.069 A 
ATOM     12  C11  11 d          -4.391 208.349 113.129  0.00  0.00    -0.004 A 
ATOM     13  C18  11 d          -6.869 208.457 113.754  0.00  0.00     0.050 A 
ATOM     14  C12  11 d          -4.613 208.286 111.725  0.00  0.00     0.053 A 
ATOM     15  C17  11 d          -3.045 208.426 113.587  0.00  0.00     0.017 A 
ATOM     16  C13  11 d          -3.523 208.317 110.852  0.00  0.00     0.105 A 
ATOM     17  C14  11 d          -2.242 208.400 111.312  0.00  0.00     0.105 A 
ATOM     18  O3   11 d          -3.584 208.302 109.451  0.00  0.00    -0.323 OA
ATOM     19  O2   11 d          -1.306 208.452 110.270  0.00  0.00    -0.323 OA
ATOM     20  C16  11 d          -1.967 208.456 112.681  0.00  0.00     0.040 A 
ATOM     21  C15  11 d          -2.174 208.441 109.092  0.00  0.00     0.352 A 
ATOM     22  C20  11 d          -6.737 208.129 118.794  0.00  0.00     0.002 A 
ATOM     23  C21  11 d          -8.097 208.234 118.474  0.00  0.00     0.001 A 
ENDBRANCH   2   5
BRANCH   1  24
ATOM     24  C5   11 d         -11.421 207.496 113.474  0.00  0.00     0.093 A 
ATOM     25  S1   11 d         -12.657 207.408 114.305  0.00  0.00    -0.075 SA
ATOM     26  C4   11 d         -13.767 207.466 113.297  0.00  0.00    -0.008 A 
ATOM     27  C3   11 d         -13.199 207.622 112.019  0.00  0.00    -0.026 A 
ATOM     28  C23  11 d         -15.216 207.502 113.714  0.00  0.00     0.046 C 
ATOM     29  C1   11 d         -11.787 207.612 112.137  0.00  0.00     0.073 A 
ATOM     30  C28  11 d         -13.915 207.640 110.677  0.00  0.00     0.041 C 
ATOM     31  C27  11 d         -15.321 207.031 110.565  0.00  0.00     0.005 C 
ATOM     32  C26  11 d         -15.498 205.633 111.196  0.00  0.00     0.000 C 
ATOM     33  C25  11 d         -16.448 205.620 112.403  0.00  0.00     0.000 C 
ATOM     34  C24  11 d         -15.846 206.099 113.731  0.00  0.00     0.005 C 
BRANCH  29  35
ATOM     35  C2   11 d         -10.784 207.722 111.043  0.00  0.00     0.252 C 
ATOM     36  O1   11 d         -10.703 206.816 110.144  0.00  0.00    -0.268 OA
ATOM     37  N1   11 d          -9.896 208.821 110.973  0.00  0.00    -0.366 N 
ATOM     38  H1   11 d          -9.932 209.609 111.701  0.00  0.00     0.159 HD
ATOM     39  H2   11 d          -9.176 208.869 110.179  0.00  0.00     0.159 HD
ENDBRANCH  29  35
ENDBRANCH   1  24
TORSDOF 3
ENDMDL
