MODEL 1
REMARK VINA RESULT:      -8.3      0.000      0.000
REMARK  0 active torsions:
REMARK  status: ('A' for Active; 'I' for Inactive)
ROOT
ATOM      1  C1   11 d         -12.155 207.027 112.590  0.00  0.00     0.152 A 
ATOM      2  N1   11 d         -13.152 206.839 113.500  0.00  0.00    -0.225 NA
ATOM      3  C2   11 d         -14.265 206.698 112.757  0.00  0.00     0.093 A 
ATOM      4  C3   11 d         -13.887 206.846 111.446  0.00  0.00     0.106 A 
ATOM      5  O1   11 d         -12.604 207.068 111.354  0.00  0.00    -0.293 OA
ATOM      6  C4   11 d         -14.811 206.770 110.399  0.00  0.00     0.040 A 
ATOM      7  C5   11 d         -16.162 206.533 110.733  0.00  0.00     0.003 A 
ATOM      8  C6   11 d         -16.551 206.381 112.087  0.00  0.00     0.002 A 
ATOM      9  C7   11 d         -15.594 206.466 113.121  0.00  0.00     0.034 A 
ATOM     10  C8   11 d         -10.739 207.410 112.951  0.00  0.00     0.088 C 
ATOM     11  C9   11 d         -10.665 208.102 114.332  0.00  0.00     0.245 C 
ATOM     12  N2   11 d          -9.276 208.535 114.680  0.00  0.00    -0.074 N 
ATOM     13  C10  11 d          -8.686 209.433 113.641  0.00  0.00     0.232 C 
ATOM     14  C11  11 d          -8.691 208.770 112.258  0.00  0.00     0.028 C 
ATOM     15  C12  11 d         -10.105 208.318 111.874  0.00  0.00     0.016 C 
ATOM     16  H8   11 d          -9.295 209.051 115.620  0.00  0.00     0.277 HD
ATOM     17  H9   11 d          -8.651 207.671 114.806  0.00  0.00     0.277 HD
ENDROOT
TORSDOF 0
ENDMDL
MODEL 2
REMARK VINA RESULT:      -7.2      1.918      2.722
REMARK  0 active torsions:
REMARK  status: ('A' for Active; 'I' for Inactive)
ROOT
ATOM      1  C1   11 d         -10.892 208.117 112.614  0.00  0.00     0.152 A 
ATOM      2  N1   11 d         -11.291 207.424 111.511  0.00  0.00    -0.225 NA
ATOM      3  C2   11 d         -12.386 206.754 111.912  0.00  0.00     0.093 A 
ATOM      4  C3   11 d         -12.566 207.047 113.241  0.00  0.00     0.106 A 
ATOM      5  O1   11 d         -11.639 207.862 113.666  0.00  0.00    -0.293 OA
ATOM      6  C4   11 d         -13.619 206.500 113.981  0.00  0.00     0.040 A 
ATOM      7  C5   11 d         -14.504 205.625 113.314  0.00  0.00     0.003 A 
ATOM      8  C6   11 d         -14.317 205.322 111.943  0.00  0.00     0.002 A 
ATOM      9  C7   11 d         -13.242 205.889 111.224  0.00  0.00     0.034 A 
ATOM     10  C8   11 d          -9.593 208.885 112.709  0.00  0.00     0.088 C 
ATOM     11  C9   11 d          -8.542 208.362 111.702  0.00  0.00     0.245 C 
ATOM     12  N2   11 d          -7.234 209.078 111.821  0.00  0.00    -0.074 N 
ATOM     13  C10  11 d          -6.674 209.009 113.206  0.00  0.00     0.232 C 
ATOM     14  C11  11 d          -7.663 209.562 114.239  0.00  0.00     0.028 C 
ATOM     15  C12  11 d          -9.014 208.844 114.141  0.00  0.00     0.016 C 
ATOM     16  H8   11 d          -6.533 208.642 111.137  0.00  0.00     0.277 HD
ATOM     17  H9   11 d          -7.358 210.105 111.535  0.00  0.00     0.277 HD
ENDROOT
TORSDOF 0
ENDMDL
MODEL 3
REMARK VINA RESULT:      -7.2      2.812      3.347
REMARK  0 active torsions:
REMARK  status: ('A' for Active; 'I' for Inactive)
ROOT
ATOM      1  C1   11 d         -13.681 206.031 114.434  0.00  0.00     0.152 A 
ATOM      2  N1   11 d         -15.017 205.763 114.422  0.00  0.00    -0.225 NA
ATOM      3  C2   11 d         -15.410 206.065 113.171  0.00  0.00     0.093 A 
ATOM      4  C3   11 d         -14.303 206.534 112.510  0.00  0.00     0.106 A 
ATOM      5  O1   11 d         -13.259 206.531 113.293  0.00  0.00    -0.293 OA
ATOM      6  C4   11 d         -14.363 206.955 111.177  0.00  0.00     0.040 A 
ATOM      7  C5   11 d         -15.612 206.882 110.522  0.00  0.00     0.003 A 
ATOM      8  C6   11 d         -16.754 206.398 111.207  0.00  0.00     0.002 A 
ATOM      9  C7   11 d         -16.661 205.983 112.553  0.00  0.00     0.034 A 
ATOM     10  C8   11 d         -12.824 206.016 115.679  0.00  0.00     0.088 C 
ATOM     11  C9   11 d         -13.667 206.226 116.958  0.00  0.00     0.245 C 
ATOM     12  N2   11 d         -12.825 206.266 118.194  0.00  0.00    -0.074 N 
ATOM     13  C10  11 d         -11.760 207.313 118.122  0.00  0.00     0.232 C 
ATOM     14  C11  11 d         -10.865 207.119 116.892  0.00  0.00     0.028 C 
ATOM     15  C12  11 d         -11.703 207.076 115.608  0.00  0.00     0.016 C 
ATOM     16  H8   11 d         -13.454 206.464 119.040  0.00  0.00     0.277 HD
ATOM     17  H9   11 d         -12.373 205.305 118.354  0.00  0.00     0.277 HD
ENDROOT
TORSDOF 0
ENDMDL
MODEL 4
REMARK VINA RESULT:      -7.0      1.611      5.815
REMARK  0 active torsions:
REMARK  status: ('A' for Active; 'I' for Inactive)
ROOT
ATOM      1  C1   11 d         -11.765 207.805 112.950  0.00  0.00     0.152 A 
ATOM      2  N1   11 d         -11.430 208.074 114.244  0.00  0.00    -0.225 NA
ATOM      3  C2   11 d         -10.141 208.454 114.185  0.00  0.00     0.093 A 
ATOM      4  C3   11 d          -9.758 208.359 112.871  0.00  0.00     0.106 A 
ATOM      5  O1   11 d         -10.747 207.942 112.128  0.00  0.00    -0.293 OA
ATOM      6  C4   11 d          -8.459 208.671 112.457  0.00  0.00     0.040 A 
ATOM      7  C5   11 d          -7.541 209.094 113.442  0.00  0.00     0.003 A 
ATOM      8  C6   11 d          -7.937 209.192 114.799  0.00  0.00     0.002 A 
ATOM      9  C7   11 d          -9.255 208.867 115.185  0.00  0.00     0.034 A 
ATOM     10  C8   11 d         -13.069 207.169 112.527  0.00  0.00     0.088 C 
ATOM     11  C9   11 d         -13.713 206.360 113.677  0.00  0.00     0.245 C 
ATOM     12  N2   11 d         -14.978 205.681 113.256  0.00  0.00    -0.074 N 
ATOM     13  C10  11 d         -14.777 204.790 112.073  0.00  0.00     0.232 C 
ATOM     14  C11  11 d         -14.183 205.559 110.886  0.00  0.00     0.028 C 
ATOM     15  C12  11 d         -12.883 206.265 111.288  0.00  0.00     0.016 C 
ATOM     16  H8   11 d         -15.351 205.097 114.075  0.00  0.00     0.277 HD
ATOM     17  H9   11 d         -15.724 206.419 113.028  0.00  0.00     0.277 HD
ENDROOT
TORSDOF 0
ENDMDL
MODEL 5
REMARK VINA RESULT:      -7.0      1.967      3.048
REMARK  0 active torsions:
REMARK  status: ('A' for Active; 'I' for Inactive)
ROOT
ATOM      1  C1   11 d         -12.679 207.724 114.231  0.00  0.00     0.152 A 
ATOM      2  N1   11 d         -12.311 207.718 112.918  0.00  0.00    -0.225 NA
ATOM      3  C2   11 d         -13.234 206.948 112.313  0.00  0.00     0.093 A 
ATOM      4  C3   11 d         -14.083 206.501 113.295  0.00  0.00     0.106 A 
ATOM      5  O1   11 d         -13.725 206.961 114.463  0.00  0.00    -0.293 OA
ATOM      6  C4   11 d         -15.161 205.657 113.009  0.00  0.00     0.040 A 
ATOM      7  C5   11 d         -15.355 205.273 111.664  0.00  0.00     0.003 A 
ATOM      8  C6   11 d         -14.477 205.734 110.652  0.00  0.00     0.002 A 
ATOM      9  C7   11 d         -13.395 206.583 110.973  0.00  0.00     0.034 A 
ATOM     10  C8   11 d         -11.843 208.313 115.343  0.00  0.00     0.088 C 
ATOM     11  C9   11 d         -10.347 208.387 114.959  0.00  0.00     0.245 C 
ATOM     12  N2   11 d          -9.499 208.919 116.071  0.00  0.00    -0.074 N 
ATOM     13  C10  11 d          -9.651 208.127 117.329  0.00  0.00     0.232 C 
ATOM     14  C11  11 d         -11.116 208.065 117.779  0.00  0.00     0.028 C 
ATOM     15  C12  11 d         -12.009 207.520 116.658  0.00  0.00     0.016 C 
ATOM     16  H8   11 d          -8.471 208.901 115.767  0.00  0.00     0.277 HD
ATOM     17  H9   11 d          -9.755 209.945 116.259  0.00  0.00     0.277 HD
ENDROOT
TORSDOF 0
ENDMDL
MODEL 6
REMARK VINA RESULT:      -6.9      2.096      5.874
REMARK  0 active torsions:
REMARK  status: ('A' for Active; 'I' for Inactive)
ROOT
ATOM      1  C1   11 d         -11.760 208.107 114.124  0.00  0.00     0.152 A 
ATOM      2  N1   11 d         -10.872 208.619 115.022  0.00  0.00    -0.225 NA
ATOM      3  C2   11 d          -9.748 208.815 114.310  0.00  0.00     0.093 A 
ATOM      4  C3   11 d         -10.004 208.378 113.035  0.00  0.00     0.106 A 
ATOM      5  O1   11 d         -11.225 207.927 112.935  0.00  0.00    -0.293 OA
ATOM      6  C4   11 d          -9.034 208.426 112.029  0.00  0.00     0.040 A 
ATOM      7  C5   11 d          -7.765 208.946 112.367  0.00  0.00     0.003 A 
ATOM      8  C6   11 d          -7.501 209.397 113.684  0.00  0.00     0.002 A 
ATOM      9  C7   11 d          -8.502 209.332 114.678  0.00  0.00     0.034 A 
ATOM     10  C8   11 d         -13.118 207.556 114.493  0.00  0.00     0.088 C 
ATOM     11  C9   11 d         -13.175 207.114 115.974  0.00  0.00     0.245 C 
ATOM     12  N2   11 d         -14.497 206.518 116.340  0.00  0.00    -0.074 N 
ATOM     13  C10  11 d         -14.861 205.364 115.463  0.00  0.00     0.232 C 
ATOM     14  C11  11 d         -14.866 205.765 113.982  0.00  0.00     0.028 C 
ATOM     15  C12  11 d         -13.520 206.378 113.578  0.00  0.00     0.016 C 
ATOM     16  H8   11 d         -14.461 206.185 117.359  0.00  0.00     0.277 HD
ATOM     17  H9   11 d         -15.261 207.270 116.280  0.00  0.00     0.277 HD
ENDROOT
TORSDOF 0
ENDMDL
MODEL 7
REMARK VINA RESULT:      -6.9      2.836      4.922
REMARK  0 active torsions:
REMARK  status: ('A' for Active; 'I' for Inactive)
ROOT
ATOM      1  C1   11 d         -11.805 206.505 114.558  0.00  0.00     0.152 A 
ATOM      2  N1   11 d         -12.467 206.093 113.440  0.00  0.00    -0.225 NA
ATOM      3  C2   11 d         -11.822 206.696 112.425  0.00  0.00     0.093 A 
ATOM      4  C3   11 d         -10.834 207.467 112.985  0.00  0.00     0.106 A 
ATOM      5  O1   11 d         -10.844 207.362 114.286  0.00  0.00    -0.293 OA
ATOM      6  C4   11 d          -9.975 208.246 112.204  0.00  0.00     0.040 A 
ATOM      7  C5   11 d         -10.154 208.217 110.804  0.00  0.00     0.003 A 
ATOM      8  C6   11 d         -11.174 207.421 110.227  0.00  0.00     0.002 A 
ATOM      9  C7   11 d         -12.028 206.648 111.043  0.00  0.00     0.034 A 
ATOM     10  C8   11 d         -12.272 206.232 115.969  0.00  0.00     0.088 C 
ATOM     11  C9   11 d         -13.793 205.959 116.028  0.00  0.00     0.245 C 
ATOM     12  N2   11 d         -14.279 205.739 117.425  0.00  0.00    -0.074 N 
ATOM     13  C10  11 d         -13.944 206.882 118.329  0.00  0.00     0.232 C 
ATOM     14  C11  11 d         -12.436 207.162 118.343  0.00  0.00     0.028 C 
ATOM     15  C12  11 d         -11.910 207.394 116.921  0.00  0.00     0.016 C 
ATOM     16  H8   11 d         -15.343 205.605 117.409  0.00  0.00     0.277 HD
ATOM     17  H9   11 d         -13.852 204.834 117.817  0.00  0.00     0.277 HD
ENDROOT
TORSDOF 0
ENDMDL
MODEL 8
REMARK VINA RESULT:      -6.7      2.628      6.021
REMARK  0 active torsions:
REMARK  status: ('A' for Active; 'I' for Inactive)
ROOT
ATOM      1  C1   11 d         -13.895 207.742 114.598  0.00  0.00     0.152 A 
ATOM      2  N1   11 d         -14.036 207.354 115.897  0.00  0.00    -0.225 NA
ATOM      3  C2   11 d         -12.854 207.650 116.467  0.00  0.00     0.093 A 
ATOM      4  C3   11 d         -12.054 208.164 115.478  0.00  0.00     0.106 A 
ATOM      5  O1   11 d         -12.688 208.196 114.337  0.00  0.00    -0.293 OA
ATOM      6  C4   11 d         -10.738 208.568 115.728  0.00  0.00     0.040 A 
ATOM      7  C5   11 d         -10.250 208.431 117.045  0.00  0.00     0.003 A 
ATOM      8  C6   11 d         -11.077 207.900 118.066  0.00  0.00     0.002 A 
ATOM      9  C7   11 d         -12.400 207.499 117.781  0.00  0.00     0.034 A 
ATOM     10  C8   11 d         -14.903 207.446 113.511  0.00  0.00     0.088 C 
ATOM     11  C9   11 d         -15.786 206.226 113.862  0.00  0.00     0.245 C 
ATOM     12  N2   11 d         -16.752 205.890 112.772  0.00  0.00    -0.074 N 
ATOM     13  C10  11 d         -16.071 205.651 111.463  0.00  0.00     0.232 C 
ATOM     14  C11  11 d         -15.218 206.856 111.046  0.00  0.00     0.028 C 
ATOM     15  C12  11 d         -14.215 207.222 112.146  0.00  0.00     0.016 C 
ATOM     16  H8   11 d         -17.299 205.010 113.048  0.00  0.00     0.277 HD
ATOM     17  H9   11 d         -17.466 206.686 112.665  0.00  0.00     0.277 HD
ENDROOT
TORSDOF 0
ENDMDL
MODEL 9
REMARK VINA RESULT:      -6.6      2.610      6.797
REMARK  0 active torsions:
REMARK  status: ('A' for Active; 'I' for Inactive)
ROOT
ATOM      1  C1   11 d          -9.527 208.655 113.714  0.00  0.00     0.152 A 
ATOM      2  N1   11 d          -9.001 209.479 114.663  0.00  0.00    -0.225 NA
ATOM      3  C2   11 d          -7.684 209.509 114.392  0.00  0.00     0.093 A 
ATOM      4  C3   11 d          -7.481 208.675 113.321  0.00  0.00     0.106 A 
ATOM      5  O1   11 d          -8.605 208.142 112.927  0.00  0.00    -0.293 OA
ATOM      6  C4   11 d          -6.207 208.462 112.782  0.00  0.00     0.040 A 
ATOM      7  C5   11 d          -5.122 209.139 113.379  0.00  0.00     0.003 A 
ATOM      8  C6   11 d          -5.332 210.000 114.485  0.00  0.00     0.002 A 
ATOM      9  C7   11 d          -6.630 210.191 115.007  0.00  0.00     0.034 A 
ATOM     10  C8   11 d         -10.957 208.166 113.712  0.00  0.00     0.088 C 
ATOM     11  C9   11 d         -11.581 208.214 115.127  0.00  0.00     0.245 C 
ATOM     12  N2   11 d         -12.980 207.684 115.150  0.00  0.00    -0.074 N 
ATOM     13  C10  11 d         -13.067 206.291 114.614  0.00  0.00     0.232 C 
ATOM     14  C11  11 d         -12.503 206.202 113.190  0.00  0.00     0.028 C 
ATOM     15  C12  11 d         -11.068 206.737 113.137  0.00  0.00     0.016 C 
ATOM     16  H8   11 d         -13.341 207.694 116.159  0.00  0.00     0.277 HD
ATOM     17  H9   11 d         -13.619 208.330 114.578  0.00  0.00     0.277 HD
ENDROOT
TORSDOF 0
ENDMDL
MODEL 10
REMARK VINA RESULT:      -6.3     13.898     16.144
REMARK  0 active torsions:
REMARK  status: ('A' for Active; 'I' for Inactive)
ROOT
ATOM      1  C1   11 d         -10.637 216.114 125.069  0.00  0.00     0.152 A 
ATOM      2  N1   11 d          -9.681 216.375 126.004  0.00  0.00    -0.225 NA
ATOM      3  C2   11 d          -8.734 217.058 125.336  0.00  0.00     0.093 A 
ATOM      4  C3   11 d          -9.149 217.138 124.031  0.00  0.00     0.106 A 
ATOM      5  O1   11 d         -10.299 216.542 123.872  0.00  0.00    -0.293 OA
ATOM      6  C4   11 d          -8.383 217.779 123.051  0.00  0.00     0.040 A 
ATOM      7  C5   11 d          -7.154 218.349 123.449  0.00  0.00     0.003 A 
ATOM      8  C6   11 d          -6.726 218.265 124.798  0.00  0.00     0.002 A 
ATOM      9  C7   11 d          -7.521 217.609 125.762  0.00  0.00     0.034 A 
ATOM     10  C8   11 d         -11.826 215.210 125.300  0.00  0.00     0.088 C 
ATOM     11  C9   11 d         -11.565 214.201 126.443  0.00  0.00     0.245 C 
ATOM     12  N2   11 d         -12.714 213.264 126.648  0.00  0.00    -0.074 N 
ATOM     13  C10  11 d         -13.071 212.523 125.400  0.00  0.00     0.232 C 
ATOM     14  C11  11 d         -13.387 213.484 124.247  0.00  0.00     0.028 C 
ATOM     15  C12  11 d         -12.224 214.455 124.013  0.00  0.00     0.016 C 
ATOM     16  H8   11 d         -12.458 212.559 127.414  0.00  0.00     0.277 HD
ATOM     17  H9   11 d         -13.568 213.814 126.997  0.00  0.00     0.277 HD
ENDROOT
TORSDOF 0
ENDMDL
