MODEL 1
REMARK VINA RESULT:      -9.5      0.000      0.000
REMARK  2 active torsions:
REMARK  status: ('A' for Active; 'I' for Inactive)
REMARK    1  A    between atoms: C13_17  and  S1_21 
REMARK    2  A    between atoms: O3_22  and  S1_21 
ROOT
ATOM      1  C1  <1> d           2.073  45.805  56.003  0.00  0.00     0.042 A 
ATOM      2  C2  <1> d           1.877  44.789  55.052  0.00  0.00     0.045 A 
ATOM      3  C3  <1> d           0.693  44.001  55.019  0.00  0.00     0.013 A 
ATOM      4  C4  <1> d          -0.304  44.276  56.003  0.00  0.00     0.001 A 
ATOM      5  C5  <1> d          -0.107  45.312  56.978  0.00  0.00     0.002 A 
ATOM      6  C6  <1> d           1.092  46.092  56.990  0.00  0.00     0.024 A 
ATOM      7  C7  <1> d           3.135  44.839  54.237  0.00  0.00     0.209 A 
ATOM      8  O1  <1> d           3.371  44.115  53.292  0.00  0.00    -0.285 OA
ATOM      9  C8  <1> d           3.956  45.925  54.812  0.00  0.00     0.092 A 
ATOM     10  C9  <1> d           5.183  46.435  54.501  0.00  0.00     0.071 A 
ATOM     11  C10 <1> d           5.837  47.551  55.221  0.00  0.00     0.251 A 
ATOM     12  O2  <1> d           5.352  48.122  56.198  0.00  0.00    -0.270 OA
ATOM     13  N1  <1> d           6.982  47.816  54.666  0.00  0.00    -0.281 N 
ATOM     14  N2  <1> d           3.259  46.400  55.825  0.00  0.00    -0.310 N 
ATOM     15  C11 <1> d           6.188  46.107  53.398  0.00  0.00     0.012 A 
ATOM     16  C12 <1> d           6.280  45.179  52.320  0.00  0.00     0.040 A 
ATOM     17  C13 <1> d           7.441  45.213  51.481  0.00  0.00     0.117 A 
ATOM     18  C14 <1> d           8.481  46.151  51.717  0.00  0.00     0.031 A 
ATOM     19  C15 <1> d           8.386  47.069  52.798  0.00  0.00     0.026 A 
ATOM     20  C16 <1> d           7.232  47.026  53.619  0.00  0.00     0.042 A 
ATOM     21  H5  <1> d           7.605  48.529  54.987  0.00  0.00     0.155 HD
ATOM     22  H6  <1> d           3.588  47.142  56.410  0.00  0.00     0.152 HD
ENDROOT
BRANCH  17  23
ATOM     23  S1  <1> d           7.517  44.047  50.146  0.00  0.00     0.110 S 
ATOM     24  O4  <1> d           7.467  44.763  48.891  0.00  0.00    -0.142 OA
ATOM     25  O5  <1> d           6.520  43.032  50.422  0.00  0.00    -0.142 OA
BRANCH  23  26
ATOM     26  O3  <1> d           8.845  43.399  50.290  0.00  0.00    -0.250 OA
ATOM     27  H10 <1> d           9.214  43.593  51.199  0.00  0.00     0.245 HD
ENDBRANCH  23  26
ENDBRANCH  17  23
TORSDOF 2
ENDMDL
MODEL 2
REMARK VINA RESULT:      -9.4      2.628      5.744
REMARK  2 active torsions:
REMARK  status: ('A' for Active; 'I' for Inactive)
REMARK    1  A    between atoms: C13_17  and  S1_21 
REMARK    2  A    between atoms: O3_22  and  S1_21 
ROOT
ATOM      1  C1  <1> d           6.836  47.251  54.793  0.00  0.00     0.042 A 
ATOM      2  C2  <1> d           7.568  46.414  53.933  0.00  0.00     0.045 A 
ATOM      3  C3  <1> d           8.987  46.466  53.852  0.00  0.00     0.013 A 
ATOM      4  C4  <1> d           9.656  47.416  54.681  0.00  0.00     0.001 A 
ATOM      5  C5  <1> d           8.912  48.276  55.559  0.00  0.00     0.002 A 
ATOM      6  C6  <1> d           7.485  48.203  55.624  0.00  0.00     0.024 A 
ATOM      7  C7  <1> d           6.501  45.597  53.266  0.00  0.00     0.209 A 
ATOM      8  O1  <1> d           6.713  44.734  52.440  0.00  0.00    -0.285 OA
ATOM      9  C8  <1> d           5.216  46.052  53.836  0.00  0.00     0.092 A 
ATOM     10  C9  <1> d           3.918  45.687  53.626  0.00  0.00     0.071 A 
ATOM     11  C10 <1> d           2.753  46.285  54.319  0.00  0.00     0.251 A 
ATOM     12  O2  <1> d           2.832  47.195  55.143  0.00  0.00    -0.270 OA
ATOM     13  N1  <1> d           1.663  45.703  53.917  0.00  0.00    -0.281 N 
ATOM     14  N2  <1> d           5.524  47.010  54.688  0.00  0.00    -0.310 N 
ATOM     15  C11 <1> d           3.275  44.624  52.736  0.00  0.00     0.012 A 
ATOM     16  C12 <1> d           3.720  43.651  51.795  0.00  0.00     0.040 A 
ATOM     17  C13 <1> d           2.747  42.812  51.162  0.00  0.00     0.117 A 
ATOM     18  C14 <1> d           1.366  42.945  51.463  0.00  0.00     0.031 A 
ATOM     19  C15 <1> d           0.928  43.923  52.397  0.00  0.00     0.026 A 
ATOM     20  C16 <1> d           1.901  44.745  53.018  0.00  0.00     0.042 A 
ATOM     21  H5  <1> d           0.750  45.946  54.245  0.00  0.00     0.155 HD
ATOM     22  H6  <1> d           4.835  47.512  55.212  0.00  0.00     0.152 HD
ENDROOT
BRANCH  17  23
ATOM     23  S1  <1> d           3.340  41.608  50.001  0.00  0.00     0.110 S 
ATOM     24  O4  <1> d           4.744  41.846  49.751  0.00  0.00    -0.142 OA
ATOM     25  O5  <1> d           2.412  41.610  48.889  0.00  0.00    -0.142 OA
BRANCH  23  26
ATOM     26  O3  <1> d           3.178  40.306  50.697  0.00  0.00    -0.250 OA
ATOM     27  H10 <1> d           3.793  40.270  51.485  0.00  0.00     0.245 HD
ENDBRANCH  23  26
ENDBRANCH  17  23
TORSDOF 2
ENDMDL
MODEL 3
REMARK VINA RESULT:      -9.3      3.455      6.684
REMARK  2 active torsions:
REMARK  status: ('A' for Active; 'I' for Inactive)
REMARK    1  A    between atoms: C13_17  and  S1_21 
REMARK    2  A    between atoms: O3_22  and  S1_21 
ROOT
ATOM      1  C1  <1> d           7.896  46.297  53.415  0.00  0.00     0.042 A 
ATOM      2  C2  <1> d           6.773  46.636  54.189  0.00  0.00     0.045 A 
ATOM      3  C3  <1> d           6.834  47.606  55.228  0.00  0.00     0.013 A 
ATOM      4  C4  <1> d           8.094  48.231  55.467  0.00  0.00     0.001 A 
ATOM      5  C5  <1> d           9.245  47.886  54.681  0.00  0.00     0.002 A 
ATOM      6  C6  <1> d           9.159  46.908  53.640  0.00  0.00     0.024 A 
ATOM      7  C7  <1> d           5.693  45.766  53.618  0.00  0.00     0.209 A 
ATOM      8  O1  <1> d           4.543  45.753  54.008  0.00  0.00    -0.285 OA
ATOM      9  C8  <1> d           6.319  44.994  52.525  0.00  0.00     0.092 A 
ATOM     10  C9  <1> d           5.848  44.057  51.652  0.00  0.00     0.071 A 
ATOM     11  C10 <1> d           6.663  43.392  50.610  0.00  0.00     0.251 A 
ATOM     12  O2  <1> d           7.865  43.598  50.436  0.00  0.00    -0.270 OA
ATOM     13  N1  <1> d           5.918  42.574  49.930  0.00  0.00    -0.281 N 
ATOM     14  N2  <1> d           7.584  45.366  52.506  0.00  0.00    -0.310 N 
ATOM     15  C11 <1> d           4.460  43.456  51.432  0.00  0.00     0.012 A 
ATOM     16  C12 <1> d           3.168  43.587  52.018  0.00  0.00     0.040 A 
ATOM     17  C13 <1> d           2.088  42.814  51.482  0.00  0.00     0.117 A 
ATOM     18  C14 <1> d           2.299  41.932  50.388  0.00  0.00     0.031 A 
ATOM     19  C15 <1> d           3.592  41.800  49.813  0.00  0.00     0.026 A 
ATOM     20  C16 <1> d           4.651  42.573  50.352  0.00  0.00     0.042 A 
ATOM     21  H5  <1> d           6.255  42.009  49.176  0.00  0.00     0.155 HD
ATOM     22  H6  <1> d           8.252  44.986  51.866  0.00  0.00     0.152 HD
ENDROOT
BRANCH  17  23
ATOM     23  S1  <1> d           0.493  43.009  52.232  0.00  0.00     0.110 S 
ATOM     24  O4  <1> d          -0.454  42.147  51.560  0.00  0.00    -0.142 OA
ATOM     25  O5  <1> d           0.233  44.433  52.295  0.00  0.00    -0.142 OA
BRANCH  23  26
ATOM     26  O3  <1> d           0.677  42.541  53.630  0.00  0.00    -0.250 OA
ATOM     27  H10 <1> d           1.389  43.086  54.073  0.00  0.00     0.245 HD
ENDBRANCH  23  26
ENDBRANCH  17  23
TORSDOF 2
ENDMDL
MODEL 4
REMARK VINA RESULT:      -9.2      3.379      7.672
REMARK  2 active torsions:
REMARK  status: ('A' for Active; 'I' for Inactive)
REMARK    1  A    between atoms: C13_17  and  S1_21 
REMARK    2  A    between atoms: O3_22  and  S1_21 
ROOT
ATOM      1  C1  <1> d           6.934  45.854  52.908  0.00  0.00     0.042 A 
ATOM      2  C2  <1> d           6.719  46.756  53.964  0.00  0.00     0.045 A 
ATOM      3  C3  <1> d           7.660  47.771  54.296  0.00  0.00     0.013 A 
ATOM      4  C4  <1> d           8.851  47.841  53.514  0.00  0.00     0.001 A 
ATOM      5  C5  <1> d           9.076  46.919  52.436  0.00  0.00     0.002 A 
ATOM      6  C6  <1> d           8.115  45.908  52.120  0.00  0.00     0.024 A 
ATOM      7  C7  <1> d           5.384  46.337  54.503  0.00  0.00     0.209 A 
ATOM      8  O1  <1> d           4.820  46.873  55.434  0.00  0.00    -0.285 OA
ATOM      9  C8  <1> d           4.940  45.202  53.667  0.00  0.00     0.092 A 
ATOM     10  C9  <1> d           3.823  44.417  53.673  0.00  0.00     0.071 A 
ATOM     11  C10 <1> d           3.571  43.307  52.724  0.00  0.00     0.251 A 
ATOM     12  O2  <1> d           4.357  42.959  51.843  0.00  0.00    -0.270 OA
ATOM     13  N1  <1> d           2.413  42.776  52.976  0.00  0.00    -0.281 N 
ATOM     14  N2  <1> d           5.908  45.001  52.796  0.00  0.00    -0.310 N 
ATOM     15  C11 <1> d           2.559  44.425  54.530  0.00  0.00     0.012 A 
ATOM     16  C12 <1> d           2.054  45.182  55.627  0.00  0.00     0.040 A 
ATOM     17  C13 <1> d           0.762  44.854  56.152  0.00  0.00     0.117 A 
ATOM     18  C14 <1> d          -0.002  43.796  55.593  0.00  0.00     0.031 A 
ATOM     19  C15 <1> d           0.511  43.040  54.504  0.00  0.00     0.026 A 
ATOM     20  C16 <1> d           1.789  43.376  53.992  0.00  0.00     0.042 A 
ATOM     21  H5  <1> d           2.032  42.004  52.466  0.00  0.00     0.155 HD
ATOM     22  H6  <1> d           5.878  44.274  52.109  0.00  0.00     0.152 HD
ENDROOT
BRANCH  17  23
ATOM     23  S1  <1> d           0.165  45.823  57.513  0.00  0.00     0.110 S 
ATOM     24  O4  <1> d          -0.384  44.938  58.516  0.00  0.00    -0.142 OA
ATOM     25  O5  <1> d          -0.674  46.861  56.948  0.00  0.00    -0.142 OA
BRANCH  23  26
ATOM     26  O3  <1> d           1.375  46.492  58.056  0.00  0.00    -0.250 OA
ATOM     27  H10 <1> d           1.125  47.389  58.419  0.00  0.00     0.245 HD
ENDBRANCH  23  26
ENDBRANCH  17  23
TORSDOF 2
ENDMDL
MODEL 5
REMARK VINA RESULT:      -9.2      2.550      6.587
REMARK  2 active torsions:
REMARK  status: ('A' for Active; 'I' for Inactive)
REMARK    1  A    between atoms: C13_17  and  S1_21 
REMARK    2  A    between atoms: O3_22  and  S1_21 
ROOT
ATOM      1  C1  <1> d           7.329  46.019  53.896  0.00  0.00     0.042 A 
ATOM      2  C2  <1> d           7.073  45.560  52.592  0.00  0.00     0.045 A 
ATOM      3  C3  <1> d           8.056  45.613  51.564  0.00  0.00     0.013 A 
ATOM      4  C4  <1> d           9.329  46.160  51.904  0.00  0.00     0.001 A 
ATOM      5  C5  <1> d           9.594  46.632  53.234  0.00  0.00     0.002 A 
ATOM      6  C6  <1> d           8.590  46.568  54.250  0.00  0.00     0.024 A 
ATOM      7  C7  <1> d           5.654  45.082  52.672  0.00  0.00     0.209 A 
ATOM      8  O1  <1> d           5.038  44.598  51.745  0.00  0.00    -0.285 OA
ATOM      9  C8  <1> d           5.221  45.309  54.067  0.00  0.00     0.092 A 
ATOM     10  C9  <1> d           4.052  45.077  54.733  0.00  0.00     0.071 A 
ATOM     11  C10 <1> d           3.824  45.385  56.163  0.00  0.00     0.251 A 
ATOM     12  O2  <1> d           4.660  45.909  56.899  0.00  0.00    -0.270 OA
ATOM     13  N1  <1> d           2.623  45.023  56.500  0.00  0.00    -0.281 N 
ATOM     14  N2  <1> d           6.252  45.861  54.675  0.00  0.00    -0.310 N 
ATOM     15  C11 <1> d           2.727  44.448  54.305  0.00  0.00     0.012 A 
ATOM     16  C12 <1> d           2.176  43.901  53.110  0.00  0.00     0.040 A 
ATOM     17  C13 <1> d           0.839  43.387  53.142  0.00  0.00     0.117 A 
ATOM     18  C14 <1> d           0.076  43.421  54.339  0.00  0.00     0.031 A 
ATOM     19  C15 <1> d           0.629  43.975  55.526  0.00  0.00     0.026 A 
ATOM     20  C16 <1> d           1.953  44.478  55.481  0.00  0.00     0.042 A 
ATOM     21  H5  <1> d           2.243  45.139  57.418  0.00  0.00     0.155 HD
ATOM     22  H6  <1> d           6.231  46.137  55.636  0.00  0.00     0.152 HD
ENDROOT
BRANCH  17  23
ATOM     23  S1  <1> d           0.190  42.708  51.637  0.00  0.00     0.110 S 
ATOM     24  O4  <1> d          -0.859  41.766  51.959  0.00  0.00    -0.142 OA
ATOM     25  O5  <1> d           1.326  42.264  50.856  0.00  0.00    -0.142 OA
BRANCH  23  26
ATOM     26  O3  <1> d          -0.396  43.872  50.924  0.00  0.00    -0.250 OA
ATOM     27  H10 <1> d          -1.135  43.560  50.328  0.00  0.00     0.245 HD
ENDBRANCH  23  26
ENDBRANCH  17  23
TORSDOF 2
ENDMDL
MODEL 6
REMARK VINA RESULT:      -9.0      3.601      5.918
REMARK  2 active torsions:
REMARK  status: ('A' for Active; 'I' for Inactive)
REMARK    1  A    between atoms: C13_17  and  S1_21 
REMARK    2  A    between atoms: O3_22  and  S1_21 
ROOT
ATOM      1  C1  <1> d           3.807  42.046  50.503  0.00  0.00     0.042 A 
ATOM      2  C2  <1> d           5.025  42.519  49.984  0.00  0.00     0.045 A 
ATOM      3  C3  <1> d           5.533  42.085  48.728  0.00  0.00     0.013 A 
ATOM      4  C4  <1> d           4.756  41.134  48.001  0.00  0.00     0.001 A 
ATOM      5  C5  <1> d           3.512  40.646  48.528  0.00  0.00     0.002 A 
ATOM      6  C6  <1> d           3.022  41.098  49.793  0.00  0.00     0.024 A 
ATOM      7  C7  <1> d           5.497  43.472  51.042  0.00  0.00     0.209 A 
ATOM      8  O1  <1> d           6.527  44.110  50.981  0.00  0.00    -0.285 OA
ATOM      9  C8  <1> d           4.462  43.463  52.097  0.00  0.00     0.092 A 
ATOM     10  C9  <1> d           4.334  44.118  53.287  0.00  0.00     0.071 A 
ATOM     11  C10 <1> d           3.190  43.961  54.215  0.00  0.00     0.251 A 
ATOM     12  O2  <1> d           2.242  43.201  54.020  0.00  0.00    -0.270 OA
ATOM     13  N1  <1> d           3.355  44.737  55.243  0.00  0.00    -0.281 N 
ATOM     14  N2  <1> d           3.549  42.603  51.692  0.00  0.00    -0.310 N 
ATOM     15  C11 <1> d           5.202  45.160  53.991  0.00  0.00     0.012 A 
ATOM     16  C12 <1> d           6.437  45.824  53.738  0.00  0.00     0.040 A 
ATOM     17  C13 <1> d           6.912  46.780  54.693  0.00  0.00     0.117 A 
ATOM     18  C14 <1> d           6.170  47.061  55.871  0.00  0.00     0.031 A 
ATOM     19  C15 <1> d           4.942  46.390  56.121  0.00  0.00     0.026 A 
ATOM     20  C16 <1> d           4.482  45.448  55.167  0.00  0.00     0.042 A 
ATOM     21  H5  <1> d           2.709  44.796  56.006  0.00  0.00     0.155 HD
ATOM     22  H6  <1> d           2.732  42.386  52.228  0.00  0.00     0.152 HD
ENDROOT
BRANCH  17  23
ATOM     23  S1  <1> d           8.450  47.591  54.340  0.00  0.00     0.110 S 
ATOM     24  O4  <1> d           8.418  48.091  52.983  0.00  0.00    -0.142 OA
ATOM     25  O5  <1> d           9.503  46.677  54.734  0.00  0.00    -0.142 OA
BRANCH  23  26
ATOM     26  O3  <1> d           8.495  48.736  55.285  0.00  0.00    -0.250 OA
ATOM     27  H10 <1> d           8.415  48.398  56.222  0.00  0.00     0.245 HD
ENDBRANCH  23  26
ENDBRANCH  17  23
TORSDOF 2
ENDMDL
MODEL 7
REMARK VINA RESULT:      -9.0      2.838      4.068
REMARK  2 active torsions:
REMARK  status: ('A' for Active; 'I' for Inactive)
REMARK    1  A    between atoms: C13_17  and  S1_21 
REMARK    2  A    between atoms: O3_22  and  S1_21 
ROOT
ATOM      1  C1  <1> d           1.420  43.435  53.885  0.00  0.00     0.042 A 
ATOM      2  C2  <1> d           1.913  44.490  54.671  0.00  0.00     0.045 A 
ATOM      3  C3  <1> d           1.180  45.025  55.767  0.00  0.00     0.013 A 
ATOM      4  C4  <1> d          -0.096  44.449  56.044  0.00  0.00     0.001 A 
ATOM      5  C5  <1> d          -0.605  43.372  55.242  0.00  0.00     0.002 A 
ATOM      6  C6  <1> d           0.151  42.851  54.145  0.00  0.00     0.024 A 
ATOM      7  C7  <1> d           3.245  44.784  54.048  0.00  0.00     0.209 A 
ATOM      8  O1  <1> d           4.011  45.641  54.437  0.00  0.00    -0.285 OA
ATOM      9  C8  <1> d           3.399  43.827  52.932  0.00  0.00     0.092 A 
ATOM     10  C9  <1> d           4.386  43.610  52.016  0.00  0.00     0.071 A 
ATOM     11  C10 <1> d           4.339  42.574  50.958  0.00  0.00     0.251 A 
ATOM     12  O2  <1> d           3.388  41.813  50.778  0.00  0.00    -0.270 OA
ATOM     13  N1  <1> d           5.439  42.607  50.268  0.00  0.00    -0.281 N 
ATOM     14  N2  <1> d           2.291  43.113  52.921  0.00  0.00    -0.310 N 
ATOM     15  C11 <1> d           5.756  44.253  51.801  0.00  0.00     0.012 A 
ATOM     16  C12 <1> d           6.519  45.294  52.403  0.00  0.00     0.040 A 
ATOM     17  C13 <1> d           7.819  45.586  51.878  0.00  0.00     0.117 A 
ATOM     18  C14 <1> d           8.339  44.854  50.777  0.00  0.00     0.031 A 
ATOM     19  C15 <1> d           7.569  43.822  50.175  0.00  0.00     0.026 A 
ATOM     20  C16 <1> d           6.285  43.542  50.707  0.00  0.00     0.042 A 
ATOM     21  H5  <1> d           5.630  42.001  49.495  0.00  0.00     0.155 HD
ATOM     22  H6  <1> d           2.117  42.392  52.250  0.00  0.00     0.152 HD
ENDROOT
BRANCH  17  23
ATOM     23  S1  <1> d           8.742  46.885  52.658  0.00  0.00     0.110 S 
ATOM     24  O4  <1> d           8.530  48.117  51.932  0.00  0.00    -0.142 OA
ATOM     25  O5  <1> d          10.093  46.389  52.832  0.00  0.00    -0.142 OA
BRANCH  23  26
ATOM     26  O3  <1> d           8.147  47.004  54.014  0.00  0.00    -0.250 OA
ATOM     27  H10 <1> d           7.317  46.450  54.063  0.00  0.00     0.245 HD
ENDBRANCH  23  26
ENDBRANCH  17  23
TORSDOF 2
ENDMDL
MODEL 8
REMARK VINA RESULT:      -8.7      2.833      6.906
REMARK  2 active torsions:
REMARK  status: ('A' for Active; 'I' for Inactive)
REMARK    1  A    between atoms: C13_17  and  S1_21 
REMARK    2  A    between atoms: O3_22  and  S1_21 
ROOT
ATOM      1  C1  <1> d           6.762  45.371  52.588  0.00  0.00     0.042 A 
ATOM      2  C2  <1> d           6.052  44.524  51.721  0.00  0.00     0.045 A 
ATOM      3  C3  <1> d           6.617  44.031  50.512  0.00  0.00     0.013 A 
ATOM      4  C4  <1> d           7.950  44.436  50.200  0.00  0.00     0.001 A 
ATOM      5  C5  <1> d           8.679  45.304  51.081  0.00  0.00     0.002 A 
ATOM      6  C6  <1> d           8.089  45.785  52.292  0.00  0.00     0.024 A 
ATOM      7  C7  <1> d           4.731  44.359  52.413  0.00  0.00     0.209 A 
ATOM      8  O1  <1> d           3.814  43.685  51.991  0.00  0.00    -0.285 OA
ATOM      9  C8  <1> d           4.819  45.145  53.661  0.00  0.00     0.092 A 
ATOM     10  C9  <1> d           3.947  45.374  54.685  0.00  0.00     0.071 A 
ATOM     11  C10 <1> d           4.242  46.213  55.869  0.00  0.00     0.251 A 
ATOM     12  O2  <1> d           5.301  46.816  56.043  0.00  0.00    -0.270 OA
ATOM     13  N1  <1> d           3.219  46.210  56.670  0.00  0.00    -0.281 N 
ATOM     14  N2  <1> d           6.018  45.693  53.653  0.00  0.00    -0.310 N 
ATOM     15  C11 <1> d           2.532  44.871  54.969  0.00  0.00     0.012 A 
ATOM     16  C12 <1> d           1.579  44.033  54.321  0.00  0.00     0.040 A 
ATOM     17  C13 <1> d           0.318  43.803  54.960  0.00  0.00     0.117 A 
ATOM     18  C14 <1> d           0.020  44.399  56.215  0.00  0.00     0.031 A 
ATOM     19  C15 <1> d           0.972  45.240  56.853  0.00  0.00     0.026 A 
ATOM     20  C16 <1> d           2.217  45.457  56.210  0.00  0.00     0.042 A 
ATOM     21  H5  <1> d           3.187  46.714  57.534  0.00  0.00     0.155 HD
ATOM     22  H6  <1> d           6.343  46.298  54.380  0.00  0.00     0.152 HD
ENDROOT
BRANCH  17  23
ATOM     23  S1  <1> d          -0.839  42.749  54.126  0.00  0.00     0.110 S 
ATOM     24  O4  <1> d          -0.558  42.768  52.708  0.00  0.00    -0.142 OA
ATOM     25  O5  <1> d          -2.158  43.128  54.592  0.00  0.00    -0.142 OA
BRANCH  23  26
ATOM     26  O3  <1> d          -0.564  41.392  54.664  0.00  0.00    -0.250 OA
ATOM     27  H10 <1> d          -0.871  40.704  54.007  0.00  0.00     0.245 HD
ENDBRANCH  23  26
ENDBRANCH  17  23
TORSDOF 2
ENDMDL
MODEL 9
REMARK VINA RESULT:      -8.7      2.780      6.798
REMARK  2 active torsions:
REMARK  status: ('A' for Active; 'I' for Inactive)
REMARK    1  A    between atoms: C13_17  and  S1_21 
REMARK    2  A    between atoms: O3_22  and  S1_21 
ROOT
ATOM      1  C1  <1> d           6.568  47.508  53.680  0.00  0.00     0.042 A 
ATOM      2  C2  <1> d           6.410  46.239  53.097  0.00  0.00     0.045 A 
ATOM      3  C3  <1> d           7.444  45.619  52.341  0.00  0.00     0.013 A 
ATOM      4  C4  <1> d           8.665  46.341  52.187  0.00  0.00     0.001 A 
ATOM      5  C5  <1> d           8.830  47.640  52.779  0.00  0.00     0.002 A 
ATOM      6  C6  <1> d           7.776  48.242  53.536  0.00  0.00     0.024 A 
ATOM      7  C7  <1> d           5.017  45.853  53.495  0.00  0.00     0.209 A 
ATOM      8  O1  <1> d           4.481  44.807  53.195  0.00  0.00    -0.285 OA
ATOM      9  C8  <1> d           4.495  46.972  54.308  0.00  0.00     0.092 A 
ATOM     10  C9  <1> d           3.306  47.195  54.939  0.00  0.00     0.071 A 
ATOM     11  C10 <1> d           2.983  48.412  55.719  0.00  0.00     0.251 A 
ATOM     12  O2  <1> d           3.747  49.367  55.858  0.00  0.00    -0.270 OA
ATOM     13  N1  <1> d           1.786  48.306  56.213  0.00  0.00    -0.281 N 
ATOM     14  N2  <1> d           5.460  47.870  54.338  0.00  0.00    -0.310 N 
ATOM     15  C11 <1> d           2.043  46.349  55.091  0.00  0.00     0.012 A 
ATOM     16  C12 <1> d           1.589  45.073  54.647  0.00  0.00     0.040 A 
ATOM     17  C13 <1> d           0.283  44.634  55.037  0.00  0.00     0.117 A 
ATOM     18  C14 <1> d          -0.546  45.452  55.849  0.00  0.00     0.031 A 
ATOM     19  C15 <1> d          -0.091  46.727  56.283  0.00  0.00     0.026 A 
ATOM     20  C16 <1> d           1.205  47.148  55.891  0.00  0.00     0.042 A 
ATOM     21  H5  <1> d           1.350  49.013  56.771  0.00  0.00     0.155 HD
ATOM     22  H6  <1> d           5.371  48.747  54.812  0.00  0.00     0.152 HD
ENDROOT
BRANCH  17  23
ATOM     23  S1  <1> d          -0.244  43.037  54.471  0.00  0.00     0.110 S 
ATOM     24  O4  <1> d          -0.360  43.063  53.030  0.00  0.00    -0.142 OA
ATOM     25  O5  <1> d          -1.398  42.673  55.268  0.00  0.00    -0.142 OA
BRANCH  23  26
ATOM     26  O3  <1> d           0.857  42.120  54.859  0.00  0.00    -0.250 OA
ATOM     27  H10 <1> d           0.515  41.181  54.890  0.00  0.00     0.245 HD
ENDBRANCH  23  26
ENDBRANCH  17  23
TORSDOF 2
ENDMDL
MODEL 10
REMARK VINA RESULT:      -8.6      2.078      2.652
REMARK  2 active torsions:
REMARK  status: ('A' for Active; 'I' for Inactive)
REMARK    1  A    between atoms: C13_17  and  S1_21 
REMARK    2  A    between atoms: O3_22  and  S1_21 
ROOT
ATOM      1  C1  <1> d           0.533  44.416  53.108  0.00  0.00     0.042 A 
ATOM      2  C2  <1> d           0.953  43.497  52.132  0.00  0.00     0.045 A 
ATOM      3  C3  <1> d           0.061  42.557  51.544  0.00  0.00     0.013 A 
ATOM      4  C4  <1> d          -1.295  42.574  51.988  0.00  0.00     0.001 A 
ATOM      5  C5  <1> d          -1.728  43.511  52.988  0.00  0.00     0.002 A 
ATOM      6  C6  <1> d          -0.812  44.447  53.563  0.00  0.00     0.024 A 
ATOM      7  C7  <1> d           2.409  43.816  51.967  0.00  0.00     0.209 A 
ATOM      8  O1  <1> d           3.156  43.245  51.200  0.00  0.00    -0.285 OA
ATOM      9  C8  <1> d           2.692  44.936  52.889  0.00  0.00     0.092 A 
ATOM     10  C9  <1> d           3.820  45.648  53.178  0.00  0.00     0.071 A 
ATOM     11  C10 <1> d           3.887  46.757  54.157  0.00  0.00     0.251 A 
ATOM     12  O2  <1> d           2.934  47.139  54.835  0.00  0.00    -0.270 OA
ATOM     13  N1  <1> d           5.092  47.243  54.182  0.00  0.00    -0.281 N 
ATOM     14  N2  <1> d           1.552  45.190  53.501  0.00  0.00    -0.310 N 
ATOM     15  C11 <1> d           5.245  45.593  52.629  0.00  0.00     0.012 A 
ATOM     16  C12 <1> d           5.959  44.815  51.671  0.00  0.00     0.040 A 
ATOM     17  C13 <1> d           7.342  45.108  51.441  0.00  0.00     0.117 A 
ATOM     18  C14 <1> d           7.991  46.152  52.151  0.00  0.00     0.031 A 
ATOM     19  C15 <1> d           7.276  46.919  53.110  0.00  0.00     0.026 A 
ATOM     20  C16 <1> d           5.908  46.620  53.327  0.00  0.00     0.042 A 
ATOM     21  H5  <1> d           5.376  47.997  54.774  0.00  0.00     0.155 HD
ATOM     22  H6  <1> d           1.458  45.900  54.199  0.00  0.00     0.152 HD
ENDROOT
BRANCH  17  23
ATOM     23  S1  <1> d           8.195  44.123  50.237  0.00  0.00     0.110 S 
ATOM     24  O4  <1> d           9.617  44.355  50.360  0.00  0.00    -0.142 OA
ATOM     25  O5  <1> d           7.545  44.365  48.965  0.00  0.00    -0.142 OA
BRANCH  23  26
ATOM     26  O3  <1> d           7.891  42.720  50.618  0.00  0.00    -0.250 OA
ATOM     27  H10 <1> d           7.972  42.619  51.609  0.00  0.00     0.245 HD
ENDBRANCH  23  26
ENDBRANCH  17  23
TORSDOF 2
ENDMDL
