MODEL 1
REMARK VINA RESULT:      -8.4      0.000      0.000
REMARK  2 active torsions:
REMARK  status: ('A' for Active; 'I' for Inactive)
REMARK    1  A    between atoms: C4_8  and  O5_18 
REMARK    2  A    between atoms: C10_15  and  O4_17 
ROOT
ATOM      1  C1   11 d         -12.119 206.748 112.962  0.00  0.00     0.095 C 
ATOM      2  C2   11 d         -13.240 205.995 112.370  0.00  0.00     0.263 C 
ATOM      3  O1   11 d         -13.292 205.804 111.174  0.00  0.00    -0.267 OA
ATOM      4  N1   11 d         -14.174 205.551 113.258  0.00  0.00    -0.275 N 
ATOM      5  C3   11 d         -14.351 206.061 114.507  0.00  0.00     0.327 C 
ATOM      6  O2   11 d         -15.366 205.850 115.135  0.00  0.00    -0.247 OA
ATOM      7  N2   11 d         -13.336 206.809 114.995  0.00  0.00    -0.283 N 
ATOM      8  C4   11 d         -12.031 206.739 114.448  0.00  0.00     0.291 C 
ATOM      9  O3   11 d         -11.307 207.830 115.023  0.00  0.00    -0.291 OA
ATOM     10  C5   11 d         -10.290 208.348 114.260  0.00  0.00     0.087 A 
ATOM     11  C6   11 d         -10.215 208.170 112.870  0.00  0.00    -0.002 A 
ATOM     12  C7   11 d         -11.258 207.416 112.186  0.00  0.00     0.034 C 
ATOM     13  C8   11 d          -9.163 208.751 112.159  0.00  0.00     0.017 A 
ATOM     14  C9   11 d          -8.197 209.502 112.832  0.00  0.00     0.037 A 
ATOM     15  C10  11 d          -8.293 209.679 114.208  0.00  0.00     0.068 A 
ATOM     16  C11  11 d          -9.336 209.113 114.932  0.00  0.00     0.074 A 
ATOM     17  H    11 d         -14.819 204.737 112.949  0.00  0.00     0.173 HD
ATOM     18  H    11 d         -13.525 207.477 115.826  0.00  0.00     0.170 HD
ENDROOT
BRANCH   8  19
ATOM     19  O5   11 d         -11.428 205.524 114.861  0.00  0.00    -0.344 OA
ATOM     20  H    11 d         -12.175 204.716 114.832  0.00  0.00     0.215 HD
ENDBRANCH   8  19
BRANCH  15  21
ATOM     21  O4   11 d          -7.392 210.383 114.815  0.00  0.00    -0.361 OA
ATOM     22  H    11 d          -7.003 210.057 115.750  0.00  0.00     0.217 HD
ENDBRANCH  15  21
TORSDOF 2
ENDMDL
MODEL 2
REMARK VINA RESULT:      -8.4      2.352      5.590
REMARK  2 active torsions:
REMARK  status: ('A' for Active; 'I' for Inactive)
REMARK    1  A    between atoms: C4_8  and  O5_18 
REMARK    2  A    between atoms: C10_15  and  O4_17 
ROOT
ATOM      1  C1   11 d         -12.025 207.563 113.651  0.00  0.00     0.095 C 
ATOM      2  C2   11 d         -10.599 207.914 113.791  0.00  0.00     0.263 C 
ATOM      3  O1   11 d          -9.899 208.054 112.811  0.00  0.00    -0.267 OA
ATOM      4  N1   11 d         -10.161 208.062 115.074  0.00  0.00    -0.275 N 
ATOM      5  C3   11 d         -10.791 207.549 116.164  0.00  0.00     0.327 C 
ATOM      6  O2   11 d         -10.221 207.445 117.229  0.00  0.00    -0.247 OA
ATOM      7  N2   11 d         -12.076 207.168 115.987  0.00  0.00    -0.283 N 
ATOM      8  C4   11 d         -12.844 207.631 114.891  0.00  0.00     0.291 C 
ATOM      9  O3   11 d         -14.032 206.835 114.882  0.00  0.00    -0.291 OA
ATOM     10  C5   11 d         -14.622 206.645 113.657  0.00  0.00     0.087 A 
ATOM     11  C6   11 d         -13.931 206.807 112.447  0.00  0.00    -0.002 A 
ATOM     12  C7   11 d         -12.522 207.181 112.469  0.00  0.00     0.034 C 
ATOM     13  C8   11 d         -14.593 206.569 111.240  0.00  0.00     0.017 A 
ATOM     14  C9   11 d         -15.932 206.173 111.246  0.00  0.00     0.037 A 
ATOM     15  C10  11 d         -16.599 206.004 112.455  0.00  0.00     0.068 A 
ATOM     16  C11  11 d         -15.954 206.231 113.666  0.00  0.00     0.074 A 
ATOM     17  H    11 d          -9.250 208.626 115.234  0.00  0.00     0.173 HD
ATOM     18  H    11 d         -12.529 206.492 116.702  0.00  0.00     0.170 HD
ENDROOT
BRANCH   8  19
ATOM     19  O5   11 d         -13.204 208.982 115.126  0.00  0.00    -0.344 OA
ATOM     20  H    11 d         -12.306 209.560 115.389  0.00  0.00     0.215 HD
ENDBRANCH   8  19
BRANCH  15  21
ATOM     21  O4   11 d         -17.838 205.632 112.442  0.00  0.00    -0.361 OA
ATOM     22  H    11 d         -18.410 205.653 113.338  0.00  0.00     0.217 HD
ENDBRANCH  15  21
TORSDOF 2
ENDMDL
MODEL 3
REMARK VINA RESULT:      -8.3      2.207      5.206
REMARK  2 active torsions:
REMARK  status: ('A' for Active; 'I' for Inactive)
REMARK    1  A    between atoms: C4_8  and  O5_18 
REMARK    2  A    between atoms: C10_15  and  O4_17 
ROOT
ATOM      1  C1   11 d         -11.284 208.192 114.828  0.00  0.00     0.095 C 
ATOM      2  C2   11 d         -10.220 208.962 115.499  0.00  0.00     0.263 C 
ATOM      3  O1   11 d          -9.318 209.457 114.859  0.00  0.00    -0.267 OA
ATOM      4  N1   11 d         -10.342 209.060 116.854  0.00  0.00    -0.275 N 
ATOM      5  C3   11 d         -11.091 208.222 117.620  0.00  0.00     0.327 C 
ATOM      6  O2   11 d         -10.934 208.159 118.821  0.00  0.00    -0.247 OA
ATOM      7  N2   11 d         -12.009 207.475 116.967  0.00  0.00    -0.283 N 
ATOM      8  C4   11 d         -12.454 207.815 115.666  0.00  0.00     0.291 C 
ATOM      9  O3   11 d         -13.201 206.688 115.200  0.00  0.00    -0.291 OA
ATOM     10  C5   11 d         -13.215 206.493 113.842  0.00  0.00     0.087 A 
ATOM     11  C6   11 d         -12.248 207.040 112.984  0.00  0.00    -0.002 A 
ATOM     12  C7   11 d         -11.166 207.842 113.541  0.00  0.00     0.034 C 
ATOM     13  C8   11 d         -12.315 206.774 111.615  0.00  0.00     0.017 A 
ATOM     14  C9   11 d         -13.338 205.970 111.110  0.00  0.00     0.037 A 
ATOM     15  C10  11 d         -14.282 205.425 111.975  0.00  0.00     0.068 A 
ATOM     16  C11  11 d         -14.228 205.674 113.342  0.00  0.00     0.074 A 
ATOM     17  H    11 d          -9.808 209.859 117.353  0.00  0.00     0.173 HD
ATOM     18  H    11 d         -12.415 206.595 117.450  0.00  0.00     0.170 HD
ENDROOT
BRANCH   8  19
ATOM     19  O5   11 d         -13.325 208.930 115.759  0.00  0.00    -0.344 OA
ATOM     20  H    11 d         -13.252 209.530 114.840  0.00  0.00     0.215 HD
ENDBRANCH   8  19
BRANCH  15  21
ATOM     21  O4   11 d         -15.221 204.678 111.490  0.00  0.00    -0.361 OA
ATOM     22  H    11 d         -15.963 205.100 110.856  0.00  0.00     0.217 HD
ENDBRANCH  15  21
TORSDOF 2
ENDMDL
MODEL 4
REMARK VINA RESULT:      -8.2      2.417      3.509
REMARK  2 active torsions:
REMARK  status: ('A' for Active; 'I' for Inactive)
REMARK    1  A    between atoms: C4_8  and  O5_18 
REMARK    2  A    between atoms: C10_15  and  O4_17 
ROOT
ATOM      1  C1   11 d         -13.345 206.353 114.961  0.00  0.00     0.095 C 
ATOM      2  C2   11 d         -14.308 205.867 115.967  0.00  0.00     0.263 C 
ATOM      3  O1   11 d         -15.223 205.141 115.645  0.00  0.00    -0.267 OA
ATOM      4  N1   11 d         -14.080 206.294 117.242  0.00  0.00    -0.275 N 
ATOM      5  C3   11 d         -13.328 207.380 117.565  0.00  0.00     0.327 C 
ATOM      6  O2   11 d         -13.400 207.891 118.662  0.00  0.00    -0.247 OA
ATOM      7  N2   11 d         -12.507 207.848 116.597  0.00  0.00    -0.283 N 
ATOM      8  C4   11 d         -12.140 207.052 115.485  0.00  0.00     0.291 C 
ATOM      9  O3   11 d         -11.499 207.938 114.564  0.00  0.00    -0.291 OA
ATOM     10  C5   11 d         -11.597 207.603 113.237  0.00  0.00     0.087 A 
ATOM     11  C6   11 d         -12.590 206.745 112.740  0.00  0.00    -0.002 A 
ATOM     12  C7   11 d         -13.578 206.185 113.654  0.00  0.00     0.034 C 
ATOM     13  C8   11 d         -12.641 206.472 111.371  0.00  0.00     0.017 A 
ATOM     14  C9   11 d         -11.708 207.052 110.510  0.00  0.00     0.037 A 
ATOM     15  C10  11 d         -10.737 207.910 111.016  0.00  0.00     0.068 A 
ATOM     16  C11  11 d         -10.675 208.197 112.375  0.00  0.00     0.074 A 
ATOM     17  H    11 d         -14.527 205.730 118.051  0.00  0.00     0.173 HD
ATOM     18  H    11 d         -12.121 208.857 116.675  0.00  0.00     0.170 HD
ENDROOT
BRANCH   8  19
ATOM     19  O5   11 d         -11.199 206.080 115.912  0.00  0.00    -0.344 OA
ATOM     20  H    11 d         -11.622 205.075 115.769  0.00  0.00     0.215 HD
ENDBRANCH   8  19
BRANCH  15  21
ATOM     21  O4   11 d          -9.883 208.443 110.203  0.00  0.00    -0.361 OA
ATOM     22  H    11 d          -9.289 207.824 109.576  0.00  0.00     0.217 HD
ENDBRANCH  15  21
TORSDOF 2
ENDMDL
MODEL 5
REMARK VINA RESULT:      -8.2      2.997      5.408
REMARK  2 active torsions:
REMARK  status: ('A' for Active; 'I' for Inactive)
REMARK    1  A    between atoms: C4_8  and  O5_18 
REMARK    2  A    between atoms: C10_15  and  O4_17 
ROOT
ATOM      1  C1   11 d         -12.696 207.625 115.640  0.00  0.00     0.095 C 
ATOM      2  C2   11 d         -11.727 207.801 116.738  0.00  0.00     0.263 C 
ATOM      3  O1   11 d         -10.537 207.839 116.511  0.00  0.00    -0.267 OA
ATOM      4  N1   11 d         -12.274 207.915 117.982  0.00  0.00    -0.275 N 
ATOM      5  C3   11 d         -13.527 207.500 118.310  0.00  0.00     0.327 C 
ATOM      6  O2   11 d         -13.855 207.343 119.467  0.00  0.00    -0.247 OA
ATOM      7  N2   11 d         -14.372 207.275 117.278  0.00  0.00    -0.283 N 
ATOM      8  C4   11 d         -14.130 207.812 115.990  0.00  0.00     0.291 C 
ATOM      9  O3   11 d         -15.061 207.167 115.117  0.00  0.00    -0.291 OA
ATOM     10  C5   11 d         -14.667 207.032 113.809  0.00  0.00     0.087 A 
ATOM     11  C6   11 d         -13.323 207.090 113.409  0.00  0.00    -0.002 A 
ATOM     12  C7   11 d         -12.284 207.289 114.412  0.00  0.00     0.034 C 
ATOM     13  C8   11 d         -12.998 206.916 112.062  0.00  0.00     0.017 A 
ATOM     14  C9   11 d         -14.008 206.687 111.126  0.00  0.00     0.037 A 
ATOM     15  C10  11 d         -15.335 206.620 111.540  0.00  0.00     0.068 A 
ATOM     16  C11  11 d         -15.676 206.784 112.878  0.00  0.00     0.074 A 
ATOM     17  H    11 d         -11.671 208.366 118.760  0.00  0.00     0.173 HD
ATOM     18  H    11 d         -15.255 206.671 117.442  0.00  0.00     0.170 HD
ENDROOT
BRANCH   8  19
ATOM     19  O5   11 d         -14.416 209.201 116.014  0.00  0.00    -0.344 OA
ATOM     20  H    11 d         -15.418 209.375 115.598  0.00  0.00     0.215 HD
ENDBRANCH   8  19
BRANCH  15  21
ATOM     21  O4   11 d         -16.258 206.401 110.659  0.00  0.00    -0.361 OA
ATOM     22  H    11 d         -17.271 206.303 110.965  0.00  0.00     0.217 HD
ENDBRANCH  15  21
TORSDOF 2
ENDMDL
MODEL 6
REMARK VINA RESULT:      -8.0      2.035      2.628
REMARK  2 active torsions:
REMARK  status: ('A' for Active; 'I' for Inactive)
REMARK    1  A    between atoms: C4_8  and  O5_18 
REMARK    2  A    between atoms: C10_15  and  O4_17 
ROOT
ATOM      1  C1   11 d         -13.694 206.759 111.837  0.00  0.00     0.095 C 
ATOM      2  C2   11 d         -14.471 206.314 110.665  0.00  0.00     0.263 C 
ATOM      3  O1   11 d         -13.938 206.178 109.585  0.00  0.00    -0.267 OA
ATOM      4  N1   11 d         -15.794 206.078 110.901  0.00  0.00    -0.275 N 
ATOM      5  C3   11 d         -16.485 206.577 111.962  0.00  0.00     0.327 C 
ATOM      6  O2   11 d         -17.697 206.595 111.970  0.00  0.00    -0.247 OA
ATOM      7  N2   11 d         -15.744 207.045 112.991  0.00  0.00    -0.283 N 
ATOM      8  C4   11 d         -14.384 206.682 113.153  0.00  0.00     0.291 C 
ATOM      9  O3   11 d         -13.866 207.550 114.165  0.00  0.00    -0.291 OA
ATOM     10  C5   11 d         -12.525 207.833 114.088  0.00  0.00     0.087 A 
ATOM     11  C6   11 d         -11.783 207.686 112.906  0.00  0.00    -0.002 A 
ATOM     12  C7   11 d         -12.448 207.226 111.693  0.00  0.00     0.034 C 
ATOM     13  C8   11 d         -10.427 208.022 112.899  0.00  0.00     0.017 A 
ATOM     14  C9   11 d          -9.821 208.499 114.063  0.00  0.00     0.037 A 
ATOM     15  C10  11 d         -10.574 208.650 115.224  0.00  0.00     0.068 A 
ATOM     16  C11  11 d         -11.926 208.327 115.247  0.00  0.00     0.074 A 
ATOM     17  H    11 d         -16.329 205.452 110.198  0.00  0.00     0.173 HD
ATOM     18  H    11 d         -16.201 207.712 113.710  0.00  0.00     0.170 HD
ENDROOT
BRANCH   8  19
ATOM     19  O5   11 d         -14.322 205.346 113.623  0.00  0.00    -0.344 OA
ATOM     20  H    11 d         -14.222 204.661 112.768  0.00  0.00     0.215 HD
ENDBRANCH   8  19
BRANCH  15  21
ATOM     21  O4   11 d          -9.998 209.099 116.292  0.00  0.00    -0.361 OA
ATOM     22  H    11 d         -10.007 208.521 117.184  0.00  0.00     0.217 HD
ENDBRANCH  15  21
TORSDOF 2
ENDMDL
MODEL 7
REMARK VINA RESULT:      -7.8      3.454      5.142
REMARK  2 active torsions:
REMARK  status: ('A' for Active; 'I' for Inactive)
REMARK    1  A    between atoms: C4_8  and  O5_18 
REMARK    2  A    between atoms: C10_15  and  O4_17 
ROOT
ATOM      1  C1   11 d         -12.928 206.449 111.957  0.00  0.00     0.095 C 
ATOM      2  C2   11 d         -12.406 206.954 110.674  0.00  0.00     0.263 C 
ATOM      3  O1   11 d         -11.234 207.236 110.552  0.00  0.00    -0.267 OA
ATOM      4  N1   11 d         -13.329 207.067 109.676  0.00  0.00    -0.275 N 
ATOM      5  C3   11 d         -14.673 207.132 109.877  0.00  0.00     0.327 C 
ATOM      6  O2   11 d         -15.420 207.530 109.009  0.00  0.00    -0.247 OA
ATOM      7  N2   11 d         -15.115 206.731 111.090  0.00  0.00    -0.283 N 
ATOM      8  C4   11 d         -14.321 205.925 111.942  0.00  0.00     0.291 C 
ATOM      9  O3   11 d         -14.985 205.921 113.209  0.00  0.00    -0.291 OA
ATOM     10  C5   11 d         -14.183 205.757 114.310  0.00  0.00     0.087 A 
ATOM     11  C6   11 d         -12.804 206.017 114.292  0.00  0.00    -0.002 A 
ATOM     12  C7   11 d         -12.179 206.495 113.065  0.00  0.00     0.034 C 
ATOM     13  C8   11 d         -12.058 205.853 115.462  0.00  0.00     0.017 A 
ATOM     14  C9   11 d         -12.687 205.433 116.636  0.00  0.00     0.037 A 
ATOM     15  C10  11 d         -14.057 205.191 116.640  0.00  0.00     0.068 A 
ATOM     16  C11  11 d         -14.816 205.355 115.486  0.00  0.00     0.074 A 
ATOM     17  H    11 d         -12.968 207.107 108.656  0.00  0.00     0.173 HD
ATOM     18  H    11 d         -16.102 207.033 111.419  0.00  0.00     0.170 HD
ENDROOT
BRANCH   8  19
ATOM     19  O5   11 d         -14.305 204.602 111.432  0.00  0.00    -0.344 OA
ATOM     20  H    11 d         -15.091 204.011 111.924  0.00  0.00     0.215 HD
ENDBRANCH   8  19
BRANCH  15  21
ATOM     21  O4   11 d         -14.624 204.807 117.738  0.00  0.00    -0.361 OA
ATOM     22  H    11 d         -15.685 204.793 117.812  0.00  0.00     0.217 HD
ENDBRANCH  15  21
TORSDOF 2
ENDMDL
MODEL 8
REMARK VINA RESULT:      -7.7      2.373      5.384
REMARK  2 active torsions:
REMARK  status: ('A' for Active; 'I' for Inactive)
REMARK    1  A    between atoms: C4_8  and  O5_18 
REMARK    2  A    between atoms: C10_15  and  O4_17 
ROOT
ATOM      1  C1   11 d          -8.865 208.892 114.188  0.00  0.00     0.095 C 
ATOM      2  C2   11 d          -7.657 209.507 114.767  0.00  0.00     0.263 C 
ATOM      3  O1   11 d          -6.845 210.060 114.058  0.00  0.00    -0.267 OA
ATOM      4  N1   11 d          -7.544 209.402 116.123  0.00  0.00    -0.275 N 
ATOM      5  C3   11 d          -8.207 208.486 116.879  0.00  0.00     0.327 C 
ATOM      6  O2   11 d          -7.855 208.233 118.011  0.00  0.00    -0.247 OA
ATOM      7  N2   11 d          -9.267 207.884 116.295  0.00  0.00    -0.283 N 
ATOM      8  C4   11 d          -9.901 208.437 115.155  0.00  0.00     0.291 C 
ATOM      9  O3   11 d         -10.786 207.424 114.670  0.00  0.00    -0.291 OA
ATOM     10  C5   11 d         -11.040 207.440 113.322  0.00  0.00     0.087 A 
ATOM     11  C6   11 d         -10.197 208.074 112.396  0.00  0.00    -0.002 A 
ATOM     12  C7   11 d          -8.987 208.738 112.865  0.00  0.00     0.034 C 
ATOM     13  C8   11 d         -10.509 208.024 111.035  0.00  0.00     0.017 A 
ATOM     14  C9   11 d         -11.652 207.348 110.607  0.00  0.00     0.037 A 
ATOM     15  C10  11 d         -12.472 206.714 111.536  0.00  0.00     0.068 A 
ATOM     16  C11  11 d         -12.173 206.748 112.894  0.00  0.00     0.074 A 
ATOM     17  H    11 d          -6.883 210.094 116.630  0.00  0.00     0.173 HD
ATOM     18  H    11 d          -9.643 206.957 116.710  0.00  0.00     0.170 HD
ENDROOT
BRANCH   8  19
ATOM     19  O5   11 d         -10.670 209.557 115.560  0.00  0.00    -0.344 OA
ATOM     20  H    11 d         -11.689 209.468 115.155  0.00  0.00     0.215 HD
ENDBRANCH   8  19
BRANCH  15  21
ATOM     21  O4   11 d         -13.524 206.086 111.120  0.00  0.00    -0.361 OA
ATOM     22  H    11 d         -14.352 205.946 111.773  0.00  0.00     0.217 HD
ENDBRANCH  15  21
TORSDOF 2
ENDMDL
MODEL 9
REMARK VINA RESULT:      -7.6      3.099      5.176
REMARK  2 active torsions:
REMARK  status: ('A' for Active; 'I' for Inactive)
REMARK    1  A    between atoms: C4_8  and  O5_18 
REMARK    2  A    between atoms: C10_15  and  O4_17 
ROOT
ATOM      1  C1   11 d         -13.367 205.906 115.343  0.00  0.00     0.095 C 
ATOM      2  C2   11 d         -13.415 205.659 116.796  0.00  0.00     0.263 C 
ATOM      3  O1   11 d         -14.287 204.970 117.278  0.00  0.00    -0.267 OA
ATOM      4  N1   11 d         -12.422 206.255 117.519  0.00  0.00    -0.275 N 
ATOM      5  C3   11 d         -11.686 207.312 117.085  0.00  0.00     0.327 C 
ATOM      6  O2   11 d         -11.040 207.988 117.857  0.00  0.00    -0.247 OA
ATOM      7  N2   11 d         -11.720 207.559 115.756  0.00  0.00    -0.283 N 
ATOM      8  C4   11 d         -12.142 206.575 114.828  0.00  0.00     0.291 C 
ATOM      9  O3   11 d         -12.298 207.256 113.580  0.00  0.00    -0.291 OA
ATOM     10  C5   11 d         -13.229 206.732 112.719  0.00  0.00     0.087 A 
ATOM     11  C6   11 d         -14.271 205.892 113.144  0.00  0.00    -0.002 A 
ATOM     12  C7   11 d         -14.394 205.561 114.558  0.00  0.00     0.034 C 
ATOM     13  C8   11 d         -15.197 205.420 112.211  0.00  0.00     0.017 A 
ATOM     14  C9   11 d         -15.081 205.784 110.868  0.00  0.00     0.037 A 
ATOM     15  C10  11 d         -14.049 206.627 110.465  0.00  0.00     0.068 A 
ATOM     16  C11  11 d         -13.122 207.111 111.381  0.00  0.00     0.074 A 
ATOM     17  H    11 d         -12.207 205.858 118.503  0.00  0.00     0.173 HD
ATOM     18  H    11 d         -11.416 208.532 115.391  0.00  0.00     0.170 HD
ENDROOT
BRANCH   8  19
ATOM     19  O5   11 d         -11.116 205.606 114.693  0.00  0.00    -0.344 OA
ATOM     20  H    11 d         -10.637 205.715 113.709  0.00  0.00     0.215 HD
ENDBRANCH   8  19
BRANCH  15  21
ATOM     21  O4   11 d         -13.960 206.958 109.217  0.00  0.00    -0.361 OA
ATOM     22  H    11 d         -14.824 206.937 108.598  0.00  0.00     0.217 HD
ENDBRANCH  15  21
TORSDOF 2
ENDMDL
MODEL 10
REMARK VINA RESULT:      -7.5      1.857      3.048
REMARK  2 active torsions:
REMARK  status: ('A' for Active; 'I' for Inactive)
REMARK    1  A    between atoms: C4_8  and  O5_18 
REMARK    2  A    between atoms: C10_15  and  O4_17 
ROOT
ATOM      1  C1   11 d         -12.615 207.752 115.624  0.00  0.00     0.095 C 
ATOM      2  C2   11 d         -13.553 207.433 116.717  0.00  0.00     0.263 C 
ATOM      3  O1   11 d         -13.298 207.744 117.860  0.00  0.00    -0.267 OA
ATOM      4  N1   11 d         -14.688 206.781 116.335  0.00  0.00    -0.275 N 
ATOM      5  C3   11 d         -14.824 206.093 115.170  0.00  0.00     0.327 C 
ATOM      6  O2   11 d         -15.721 205.293 115.012  0.00  0.00    -0.247 OA
ATOM      7  N2   11 d         -13.905 206.353 114.212  0.00  0.00    -0.283 N 
ATOM      8  C4   11 d         -13.115 207.528 114.241  0.00  0.00     0.291 C 
ATOM      9  O3   11 d         -12.102 207.343 113.248  0.00  0.00    -0.291 OA
ATOM     10  C5   11 d         -10.913 207.990 113.471  0.00  0.00     0.087 A 
ATOM     11  C6   11 d         -10.515 208.433 114.742  0.00  0.00    -0.002 A 
ATOM     12  C7   11 d         -11.380 208.193 115.890  0.00  0.00     0.034 C 
ATOM     13  C8   11 d          -9.276 209.061 114.894  0.00  0.00     0.017 A 
ATOM     14  C9   11 d          -8.447 209.244 113.786  0.00  0.00     0.037 A 
ATOM     15  C10  11 d          -8.851 208.788 112.535  0.00  0.00     0.068 A 
ATOM     16  C11  11 d         -10.078 208.156 112.366  0.00  0.00     0.074 A 
ATOM     17  H    11 d         -15.539 206.813 117.005  0.00  0.00     0.173 HD
ATOM     18  H    11 d         -13.772 205.646 113.403  0.00  0.00     0.170 HD
ENDROOT
BRANCH   8  19
ATOM     19  O5   11 d         -13.924 208.630 113.864  0.00  0.00    -0.344 OA
ATOM     20  H    11 d         -14.937 208.497 114.272  0.00  0.00     0.215 HD
ENDBRANCH   8  19
BRANCH  15  21
ATOM     21  O4   11 d          -8.068 208.962 111.520  0.00  0.00    -0.361 OA
ATOM     22  H    11 d          -8.333 209.651 110.755  0.00  0.00     0.217 HD
ENDBRANCH  15  21
TORSDOF 2
ENDMDL
