MODEL 1
REMARK VINA RESULT:      -8.0      0.000      0.000
REMARK  5 active torsions:
REMARK  status: ('A' for Active; 'I' for Inactive)
REMARK    1  A    between atoms: C1_1  and  O2_3 
REMARK    2  A    between atoms: C1_1  and  C4_6 
REMARK    3  A    between atoms: O2_3  and  C2_4 
REMARK    4  A    between atoms: C4_6  and  C5_7 
REMARK    5  A    between atoms: N1_8  and  C6_9 
ROOT
ATOM      1  C6   11 d         -12.288 206.855 111.593  0.00  0.00     0.093 A 
ATOM      2  C7   11 d         -11.603 207.167 110.438  0.00  0.00     0.172 A 
ATOM      3  N2   11 d         -10.459 207.796 110.779  0.00  0.00    -0.178 NA
ATOM      4  N3   11 d         -10.390 207.880 112.079  0.00  0.00    -0.243 N 
ATOM      5  C8   11 d          -9.280 208.476 112.792  0.00  0.00     0.058 A 
ATOM      6  C9   11 d          -9.393 208.879 114.141  0.00  0.00     0.031 A 
ATOM      7  C10  11 d          -8.298 209.444 114.814  0.00  0.00     0.002 A 
ATOM      8  C11  11 d          -7.077 209.616 114.149  0.00  0.00     0.000 A 
ATOM      9  C12  11 d          -6.951 209.228 112.808  0.00  0.00     0.002 A 
ATOM     10  C13  11 d          -8.045 208.664 112.134  0.00  0.00     0.031 A 
ATOM     11  C14  11 d         -11.488 207.308 112.630  0.00  0.00     0.151 A 
ENDROOT
BRANCH   1  12
ATOM     12  N1   11 d         -13.522 206.100 111.627  0.00  0.00    -0.255 NA
ATOM     13  C5   11 d         -14.625 206.451 110.995  0.00  0.00     0.018 C 
ATOM     14  C15  11 d         -14.715 207.583 109.991  0.00  0.00     0.066 C 
BRANCH  13  15
ATOM     15  C4   11 d         -15.883 205.623 111.190  0.00  0.00     0.165 C 
BRANCH  15  16
ATOM     16  C1   11 d         -16.971 206.077 112.134  0.00  0.00     0.264 C 
ATOM     17  O1   11 d         -17.950 206.769 111.750  0.00  0.00    -0.265 OA
BRANCH  16  18
ATOM     18  O2   11 d         -16.865 205.710 113.506  0.00  0.00    -0.322 OA
BRANCH  18  19
ATOM     19  C2   11 d         -15.796 206.451 114.149  0.00  0.00     0.174 C 
ATOM     20  C3   11 d         -15.041 205.520 115.082  0.00  0.00     0.034 C 
ENDBRANCH  18  19
ENDBRANCH  16  18
ENDBRANCH  15  16
ENDBRANCH  13  15
ENDBRANCH   1  12
TORSDOF 5
ENDMDL
MODEL 2
REMARK VINA RESULT:      -7.8      4.662      7.387
REMARK  5 active torsions:
REMARK  status: ('A' for Active; 'I' for Inactive)
REMARK    1  A    between atoms: C1_1  and  O2_3 
REMARK    2  A    between atoms: C1_1  and  C4_6 
REMARK    3  A    between atoms: O2_3  and  C2_4 
REMARK    4  A    between atoms: C4_6  and  C5_7 
REMARK    5  A    between atoms: N1_8  and  C6_9 
ROOT
ATOM      1  C6   11 d         -14.036 205.371 116.403  0.00  0.00     0.093 A 
ATOM      2  C7   11 d         -12.786 205.550 115.850  0.00  0.00     0.172 A 
ATOM      3  N2   11 d         -12.938 205.857 114.545  0.00  0.00    -0.178 NA
ATOM      4  N3   11 d         -14.211 205.893 114.262  0.00  0.00    -0.243 N 
ATOM      5  C8   11 d         -14.738 206.218 112.953  0.00  0.00     0.058 A 
ATOM      6  C9   11 d         -16.063 205.896 112.585  0.00  0.00     0.031 A 
ATOM      7  C10  11 d         -16.555 206.233 111.313  0.00  0.00     0.002 A 
ATOM      8  C11  11 d         -15.729 206.892 110.392  0.00  0.00     0.000 A 
ATOM      9  C12  11 d         -14.410 207.211 110.740  0.00  0.00     0.002 A 
ATOM     10  C13  11 d         -13.917 206.875 112.011  0.00  0.00     0.031 A 
ATOM     11  C14  11 d         -14.933 205.608 115.373  0.00  0.00     0.151 A 
ENDROOT
BRANCH   1  12
ATOM     12  N1   11 d         -14.275 205.112 117.807  0.00  0.00    -0.255 NA
ATOM     13  C5   11 d         -14.905 204.050 118.269  0.00  0.00     0.018 C 
ATOM     14  C15  11 d         -15.304 202.855 117.427  0.00  0.00     0.066 C 
BRANCH  13  15
ATOM     15  C4   11 d         -15.176 203.943 119.760  0.00  0.00     0.165 C 
BRANCH  15  16
ATOM     16  C1   11 d         -16.471 203.357 120.272  0.00  0.00     0.264 C 
ATOM     17  O1   11 d         -16.592 202.137 120.555  0.00  0.00    -0.265 OA
BRANCH  16  18
ATOM     18  O2   11 d         -17.587 204.228 120.424  0.00  0.00    -0.322 OA
BRANCH  18  19
ATOM     19  C2   11 d         -18.780 203.630 119.853  0.00  0.00     0.174 C 
ATOM     20  C3   11 d         -19.989 204.455 120.258  0.00  0.00     0.034 C 
ENDBRANCH  18  19
ENDBRANCH  16  18
ENDBRANCH  15  16
ENDBRANCH  13  15
ENDBRANCH   1  12
TORSDOF 5
ENDMDL
MODEL 3
REMARK VINA RESULT:      -7.8      3.945      7.994
REMARK  5 active torsions:
REMARK  status: ('A' for Active; 'I' for Inactive)
REMARK    1  A    between atoms: C1_1  and  O2_3 
REMARK    2  A    between atoms: C1_1  and  C4_6 
REMARK    3  A    between atoms: O2_3  and  C2_4 
REMARK    4  A    between atoms: C4_6  and  C5_7 
REMARK    5  A    between atoms: N1_8  and  C6_9 
ROOT
ATOM      1  C6   11 d         -10.700 207.652 113.131  0.00  0.00     0.093 A 
ATOM      2  C7   11 d         -11.339 207.821 114.341  0.00  0.00     0.172 A 
ATOM      3  N2   11 d         -12.659 207.609 114.157  0.00  0.00    -0.178 NA
ATOM      4  N3   11 d         -12.872 207.306 112.906  0.00  0.00    -0.243 N 
ATOM      5  C8   11 d         -14.176 206.990 112.363  0.00  0.00     0.058 A 
ATOM      6  C9   11 d         -14.431 207.028 110.974  0.00  0.00     0.031 A 
ATOM      7  C10  11 d         -15.702 206.707 110.470  0.00  0.00     0.002 A 
ATOM      8  C11  11 d         -16.735 206.346 111.347  0.00  0.00     0.000 A 
ATOM      9  C12  11 d         -16.499 206.311 112.727  0.00  0.00     0.002 A 
ATOM     10  C13  11 d         -15.230 206.633 113.232  0.00  0.00     0.031 A 
ATOM     11  C14  11 d         -11.697 207.310 112.231  0.00  0.00     0.151 A 
ENDROOT
BRANCH   1  12
ATOM     12  N1   11 d          -9.265 207.717 112.954  0.00  0.00    -0.255 NA
ATOM     13  C5   11 d          -8.637 208.698 112.335  0.00  0.00     0.018 C 
ATOM     14  C15  11 d          -9.293 209.989 111.887  0.00  0.00     0.066 C 
BRANCH  13  15
ATOM     15  C4   11 d          -7.135 208.601 112.130  0.00  0.00     0.165 C 
BRANCH  15  16
ATOM     16  C1   11 d          -6.178 208.891 113.263  0.00  0.00     0.264 C 
ATOM     17  O1   11 d          -5.152 208.193 113.472  0.00  0.00    -0.265 OA
BRANCH  16  18
ATOM     18  O2   11 d          -6.468 209.991 114.120  0.00  0.00    -0.322 OA
BRANCH  18  19
ATOM     19  C2   11 d          -6.660 209.534 115.484  0.00  0.00     0.174 C 
ATOM     20  C3   11 d          -5.639 210.211 116.381  0.00  0.00     0.034 C 
ENDBRANCH  18  19
ENDBRANCH  16  18
ENDBRANCH  15  16
ENDBRANCH  13  15
ENDBRANCH   1  12
TORSDOF 5
ENDMDL
MODEL 4
REMARK VINA RESULT:      -7.6      4.651      7.530
REMARK  5 active torsions:
REMARK  status: ('A' for Active; 'I' for Inactive)
REMARK    1  A    between atoms: C1_1  and  O2_3 
REMARK    2  A    between atoms: C1_1  and  C4_6 
REMARK    3  A    between atoms: O2_3  and  C2_4 
REMARK    4  A    between atoms: C4_6  and  C5_7 
REMARK    5  A    between atoms: N1_8  and  C6_9 
ROOT
ATOM      1  C6   11 d         -13.857 205.427 116.401  0.00  0.00     0.093 A 
ATOM      2  C7   11 d         -12.629 205.572 115.791  0.00  0.00     0.172 A 
ATOM      3  N2   11 d         -12.833 205.852 114.487  0.00  0.00    -0.178 NA
ATOM      4  N3   11 d         -14.116 205.903 114.257  0.00  0.00    -0.243 N 
ATOM      5  C8   11 d         -14.693 206.207 112.965  0.00  0.00     0.058 A 
ATOM      6  C9   11 d         -16.038 205.899 112.662  0.00  0.00     0.031 A 
ATOM      7  C10  11 d         -16.579 206.215 111.405  0.00  0.00     0.002 A 
ATOM      8  C11  11 d         -15.783 206.839 110.434  0.00  0.00     0.000 A 
ATOM      9  C12  11 d         -14.445 207.143 110.717  0.00  0.00     0.002 A 
ATOM     10  C13  11 d         -13.904 206.828 111.973  0.00  0.00     0.031 A 
ATOM     11  C14  11 d         -14.793 205.656 115.405  0.00  0.00     0.151 A 
ENDROOT
BRANCH   1  12
ATOM     12  N1   11 d         -14.038 205.204 117.819  0.00  0.00    -0.255 NA
ATOM     13  C5   11 d         -13.855 206.125 118.745  0.00  0.00     0.018 C 
ATOM     14  C15  11 d         -13.616 207.594 118.459  0.00  0.00     0.066 C 
BRANCH  13  15
ATOM     15  C4   11 d         -13.985 205.737 120.208  0.00  0.00     0.165 C 
BRANCH  15  16
ATOM     16  C1   11 d         -14.882 206.517 121.140  0.00  0.00     0.264 C 
ATOM     17  O1   11 d         -14.476 206.971 122.242  0.00  0.00    -0.265 OA
BRANCH  16  18
ATOM     18  O2   11 d         -16.234 206.729 120.748  0.00  0.00    -0.322 OA
BRANCH  18  19
ATOM     19  C2   11 d         -17.142 206.194 121.746  0.00  0.00     0.174 C 
ATOM     20  C3   11 d         -18.433 205.776 121.065  0.00  0.00     0.034 C 
ENDBRANCH  18  19
ENDBRANCH  16  18
ENDBRANCH  15  16
ENDBRANCH  13  15
ENDBRANCH   1  12
TORSDOF 5
ENDMDL
MODEL 5
REMARK VINA RESULT:      -7.5      1.262      2.225
REMARK  5 active torsions:
REMARK  status: ('A' for Active; 'I' for Inactive)
REMARK    1  A    between atoms: C1_1  and  O2_3 
REMARK    2  A    between atoms: C1_1  and  C4_6 
REMARK    3  A    between atoms: O2_3  and  C2_4 
REMARK    4  A    between atoms: C4_6  and  C5_7 
REMARK    5  A    between atoms: N1_8  and  C6_9 
ROOT
ATOM      1  C6   11 d         -11.710 207.160 112.589  0.00  0.00     0.093 A 
ATOM      2  C7   11 d         -11.186 207.416 111.340  0.00  0.00     0.172 A 
ATOM      3  N2   11 d          -9.970 207.981 111.497  0.00  0.00    -0.178 NA
ATOM      4  N3   11 d          -9.706 208.077 112.771  0.00  0.00    -0.243 N 
ATOM      5  C8   11 d          -8.471 208.615 113.301  0.00  0.00     0.058 A 
ATOM      6  C9   11 d          -8.362 209.040 114.644  0.00  0.00     0.031 A 
ATOM      7  C10  11 d          -7.150 209.548 115.138  0.00  0.00     0.002 A 
ATOM      8  C11  11 d          -6.032 209.640 114.297  0.00  0.00     0.000 A 
ATOM      9  C12  11 d          -6.126 209.229 112.961  0.00  0.00     0.002 A 
ATOM     10  C13  11 d          -7.338 208.722 112.466  0.00  0.00     0.031 A 
ATOM     11  C14  11 d         -10.742 207.578 113.489  0.00  0.00     0.151 A 
ENDROOT
BRANCH   1  12
ATOM     12  N1   11 d         -12.966 206.479 112.819  0.00  0.00    -0.255 NA
ATOM     13  C5   11 d         -13.972 206.989 113.503  0.00  0.00     0.018 C 
ATOM     14  C15  11 d         -14.042 208.423 113.986  0.00  0.00     0.066 C 
BRANCH  13  15
ATOM     15  C4   11 d         -15.202 206.133 113.756  0.00  0.00     0.165 C 
BRANCH  15  16
ATOM     16  C1   11 d         -16.201 205.868 112.654  0.00  0.00     0.264 C 
ATOM     17  O1   11 d         -17.436 205.779 112.874  0.00  0.00    -0.265 OA
BRANCH  16  18
ATOM     18  O2   11 d         -15.709 205.706 111.328  0.00  0.00    -0.322 OA
BRANCH  18  19
ATOM     19  C2   11 d         -15.996 206.886 110.533  0.00  0.00     0.174 C 
ATOM     20  C3   11 d         -14.734 207.306 109.799  0.00  0.00     0.034 C 
ENDBRANCH  18  19
ENDBRANCH  16  18
ENDBRANCH  15  16
ENDBRANCH  13  15
ENDBRANCH   1  12
TORSDOF 5
ENDMDL
MODEL 6
REMARK VINA RESULT:      -7.3      4.291      8.385
REMARK  5 active torsions:
REMARK  status: ('A' for Active; 'I' for Inactive)
REMARK    1  A    between atoms: C1_1  and  O2_3 
REMARK    2  A    between atoms: C1_1  and  C4_6 
REMARK    3  A    between atoms: O2_3  and  C2_4 
REMARK    4  A    between atoms: C4_6  and  C5_7 
REMARK    5  A    between atoms: N1_8  and  C6_9 
ROOT
ATOM      1  C6   11 d          -9.857 208.073 112.884  0.00  0.00     0.093 A 
ATOM      2  C7   11 d          -9.869 208.397 111.544  0.00  0.00     0.172 A 
ATOM      3  N2   11 d         -11.015 207.931 111.005  0.00  0.00    -0.178 NA
ATOM      4  N3   11 d         -11.719 207.349 111.936  0.00  0.00    -0.243 N 
ATOM      5  C8   11 d         -13.021 206.757 111.713  0.00  0.00     0.058 A 
ATOM      6  C9   11 d         -13.582 205.833 112.622  0.00  0.00     0.031 A 
ATOM      7  C10  11 d         -14.853 205.282 112.390  0.00  0.00     0.002 A 
ATOM      8  C11  11 d         -15.577 205.643 111.246  0.00  0.00     0.000 A 
ATOM      9  C12  11 d         -15.030 206.552 110.331  0.00  0.00     0.002 A 
ATOM     10  C13  11 d         -13.760 207.104 110.562  0.00  0.00     0.031 A 
ATOM     11  C14  11 d         -11.054 207.415 113.116  0.00  0.00     0.151 A 
ENDROOT
BRANCH   1  12
ATOM     12  N1   11 d          -8.822 208.482 113.809  0.00  0.00    -0.255 NA
ATOM     13  C5   11 d          -7.542 208.561 113.504  0.00  0.00     0.018 C 
ATOM     14  C15  11 d          -6.984 208.423 112.102  0.00  0.00     0.066 C 
BRANCH  13  15
ATOM     15  C4   11 d          -6.543 208.911 114.594  0.00  0.00     0.165 C 
BRANCH  15  16
ATOM     16  C1   11 d          -5.821 210.238 114.587  0.00  0.00     0.264 C 
ATOM     17  O1   11 d          -6.267 211.249 115.189  0.00  0.00    -0.265 OA
BRANCH  16  18
ATOM     18  O2   11 d          -4.601 210.334 113.860  0.00  0.00    -0.322 OA
BRANCH  18  19
ATOM     19  C2   11 d          -3.875 209.078 113.918  0.00  0.00     0.174 C 
ATOM     20  C3   11 d          -3.206 208.832 112.578  0.00  0.00     0.034 C 
ENDBRANCH  18  19
ENDBRANCH  16  18
ENDBRANCH  15  16
ENDBRANCH  13  15
ENDBRANCH   1  12
TORSDOF 5
ENDMDL
MODEL 7
REMARK VINA RESULT:      -7.2      4.071      6.101
REMARK  5 active torsions:
REMARK  status: ('A' for Active; 'I' for Inactive)
REMARK    1  A    between atoms: C1_1  and  O2_3 
REMARK    2  A    between atoms: C1_1  and  C4_6 
REMARK    3  A    between atoms: O2_3  and  C2_4 
REMARK    4  A    between atoms: C4_6  and  C5_7 
REMARK    5  A    between atoms: N1_8  and  C6_9 
ROOT
ATOM      1  C6   11 d         -13.528 205.862 115.846  0.00  0.00     0.093 A 
ATOM      2  C7   11 d         -14.487 205.644 114.880  0.00  0.00     0.172 A 
ATOM      3  N2   11 d         -14.003 206.072 113.696  0.00  0.00    -0.178 NA
ATOM      4  N3   11 d         -12.795 206.531 113.870  0.00  0.00    -0.243 N 
ATOM      5  C8   11 d         -11.966 207.050 112.802  0.00  0.00     0.058 A 
ATOM      6  C9   11 d         -10.839 207.860 113.063  0.00  0.00     0.031 A 
ATOM      7  C10  11 d         -10.043 208.341 112.011  0.00  0.00     0.002 A 
ATOM      8  C11  11 d         -10.365 208.023 110.684  0.00  0.00     0.000 A 
ATOM      9  C12  11 d         -11.485 207.227 110.409  0.00  0.00     0.002 A 
ATOM     10  C13  11 d         -12.281 206.745 111.460  0.00  0.00     0.031 A 
ATOM     11  C14  11 d         -12.449 206.418 115.176  0.00  0.00     0.151 A 
ENDROOT
BRANCH   1  12
ATOM     12  N1   11 d         -13.657 205.452 117.228  0.00  0.00    -0.255 NA
ATOM     13  C5   11 d         -13.519 206.262 118.259  0.00  0.00     0.018 C 
ATOM     14  C15  11 d         -13.394 207.769 118.155  0.00  0.00     0.066 C 
BRANCH  13  15
ATOM     15  C4   11 d         -13.583 205.688 119.664  0.00  0.00     0.165 C 
BRANCH  15  16
ATOM     16  C1   11 d         -14.703 206.064 120.604  0.00  0.00     0.264 C 
ATOM     17  O1   11 d         -14.674 207.113 121.299  0.00  0.00    -0.265 OA
BRANCH  16  18
ATOM     18  O2   11 d         -15.819 205.185 120.705  0.00  0.00    -0.322 OA
BRANCH  18  19
ATOM     19  C2   11 d         -15.422 203.824 120.396  0.00  0.00     0.174 C 
ATOM     20  C3   11 d         -16.654 202.937 120.397  0.00  0.00     0.034 C 
ENDBRANCH  18  19
ENDBRANCH  16  18
ENDBRANCH  15  16
ENDBRANCH  13  15
ENDBRANCH   1  12
TORSDOF 5
ENDMDL
MODEL 8
REMARK VINA RESULT:      -7.2      4.671      8.507
REMARK  5 active torsions:
REMARK  status: ('A' for Active; 'I' for Inactive)
REMARK    1  A    between atoms: C1_1  and  O2_3 
REMARK    2  A    between atoms: C1_1  and  C4_6 
REMARK    3  A    between atoms: O2_3  and  C2_4 
REMARK    4  A    between atoms: C4_6  and  C5_7 
REMARK    5  A    between atoms: N1_8  and  C6_9 
ROOT
ATOM      1  C6   11 d          -9.146 209.092 113.304  0.00  0.00     0.093 A 
ATOM      2  C7   11 d          -9.055 208.934 111.937  0.00  0.00     0.172 A 
ATOM      3  N2   11 d         -10.081 208.158 111.530  0.00  0.00    -0.178 NA
ATOM      4  N3   11 d         -10.809 207.838 112.564  0.00  0.00    -0.243 N 
ATOM      5  C8   11 d         -12.009 207.031 112.488  0.00  0.00     0.058 A 
ATOM      6  C9   11 d         -12.557 206.405 113.629  0.00  0.00     0.031 A 
ATOM      7  C10  11 d         -13.729 205.637 113.532  0.00  0.00     0.002 A 
ATOM      8  C11  11 d         -14.366 205.481 112.293  0.00  0.00     0.000 A 
ATOM      9  C12  11 d         -13.830 206.090 111.150  0.00  0.00     0.002 A 
ATOM     10  C13  11 d         -12.659 206.858 111.246  0.00  0.00     0.031 A 
ATOM     11  C14  11 d         -10.282 208.394 113.682  0.00  0.00     0.151 A 
ENDROOT
BRANCH   1  12
ATOM     12  N1   11 d          -8.264 209.933 114.085  0.00  0.00    -0.255 NA
ATOM     13  C5   11 d          -7.039 209.597 114.438  0.00  0.00     0.018 C 
ATOM     14  C15  11 d          -6.302 208.376 113.925  0.00  0.00     0.066 C 
BRANCH  13  15
ATOM     15  C4   11 d          -6.249 210.528 115.342  0.00  0.00     0.165 C 
BRANCH  15  16
ATOM     16  C1   11 d          -5.421 209.984 116.482  0.00  0.00     0.264 C 
ATOM     17  O1   11 d          -4.258 209.533 116.313  0.00  0.00    -0.265 OA
BRANCH  16  18
ATOM     18  O2   11 d          -5.994 209.979 117.785  0.00  0.00    -0.322 OA
BRANCH  18  19
ATOM     19  C2   11 d          -5.093 210.598 118.739  0.00  0.00     0.174 C 
ATOM     20  C3   11 d          -5.829 211.710 119.466  0.00  0.00     0.034 C 
ENDBRANCH  18  19
ENDBRANCH  16  18
ENDBRANCH  15  16
ENDBRANCH  13  15
ENDBRANCH   1  12
TORSDOF 5
ENDMDL
MODEL 9
REMARK VINA RESULT:      -7.1      4.549      7.514
REMARK  5 active torsions:
REMARK  status: ('A' for Active; 'I' for Inactive)
REMARK    1  A    between atoms: C1_1  and  O2_3 
REMARK    2  A    between atoms: C1_1  and  C4_6 
REMARK    3  A    between atoms: O2_3  and  C2_4 
REMARK    4  A    between atoms: C4_6  and  C5_7 
REMARK    5  A    between atoms: N1_8  and  C6_9 
ROOT
ATOM      1  C6   11 d         -13.783 205.756 116.378  0.00  0.00     0.093 A 
ATOM      2  C7   11 d         -12.564 205.737 115.734  0.00  0.00     0.172 A 
ATOM      3  N2   11 d         -12.778 205.926 114.415  0.00  0.00    -0.178 NA
ATOM      4  N3   11 d         -14.057 206.075 114.207  0.00  0.00    -0.243 N 
ATOM      5  C8   11 d         -14.640 206.323 112.906  0.00  0.00     0.058 A 
ATOM      6  C9   11 d         -16.015 206.116 112.656  0.00  0.00     0.031 A 
ATOM      7  C10  11 d         -16.560 206.375 111.388  0.00  0.00     0.002 A 
ATOM      8  C11  11 d         -15.738 206.841 110.352  0.00  0.00     0.000 A 
ATOM      9  C12  11 d         -14.371 207.044 110.583  0.00  0.00     0.002 A 
ATOM     10  C13  11 d         -13.825 206.785 111.850  0.00  0.00     0.031 A 
ATOM     11  C14  11 d         -14.722 205.987 115.385  0.00  0.00     0.151 A 
ENDROOT
BRANCH   1  12
ATOM     12  N1   11 d         -13.945 205.668 117.814  0.00  0.00    -0.255 NA
ATOM     13  C5   11 d         -14.525 204.660 118.435  0.00  0.00     0.018 C 
ATOM     14  C15  11 d         -14.935 203.363 117.768  0.00  0.00     0.066 C 
BRANCH  13  15
ATOM     15  C4   11 d         -14.719 204.733 119.940  0.00  0.00     0.165 C 
BRANCH  15  16
ATOM     16  C1   11 d         -14.702 206.061 120.660  0.00  0.00     0.264 C 
ATOM     17  O1   11 d         -15.512 206.985 120.387  0.00  0.00    -0.265 OA
BRANCH  16  18
ATOM     18  O2   11 d         -13.722 206.262 121.673  0.00  0.00    -0.322 OA
BRANCH  18  19
ATOM     19  C2   11 d         -12.993 205.033 121.925  0.00  0.00     0.174 C 
ATOM     20  C3   11 d         -13.133 204.667 123.392  0.00  0.00     0.034 C 
ENDBRANCH  18  19
ENDBRANCH  16  18
ENDBRANCH  15  16
ENDBRANCH  13  15
ENDBRANCH   1  12
TORSDOF 5
ENDMDL
MODEL 10
REMARK VINA RESULT:      -7.0      4.018      7.610
REMARK  5 active torsions:
REMARK  status: ('A' for Active; 'I' for Inactive)
REMARK    1  A    between atoms: C1_1  and  O2_3 
REMARK    2  A    between atoms: C1_1  and  C4_6 
REMARK    3  A    between atoms: O2_3  and  C2_4 
REMARK    4  A    between atoms: C4_6  and  C5_7 
REMARK    5  A    between atoms: N1_8  and  C6_9 
ROOT
ATOM      1  C6   11 d          -9.889 208.016 112.314  0.00  0.00     0.093 A 
ATOM      2  C7   11 d         -10.065 208.214 110.960  0.00  0.00     0.172 A 
ATOM      3  N2   11 d         -11.274 207.725 110.614  0.00  0.00    -0.178 NA
ATOM      4  N3   11 d         -11.862 207.249 111.676  0.00  0.00    -0.243 N 
ATOM      5  C8   11 d         -13.188 206.668 111.673  0.00  0.00     0.058 A 
ATOM      6  C9   11 d         -13.642 205.846 112.729  0.00  0.00     0.031 A 
ATOM      7  C10  11 d         -14.937 205.304 112.709  0.00  0.00     0.002 A 
ATOM      8  C11  11 d         -15.795 205.573 111.633  0.00  0.00     0.000 A 
ATOM      9  C12  11 d         -15.357 206.380 110.575  0.00  0.00     0.002 A 
ATOM     10  C13  11 d         -14.062 206.923 110.594  0.00  0.00     0.031 A 
ATOM     11  C14  11 d         -11.056 207.410 112.753  0.00  0.00     0.151 A 
ENDROOT
BRANCH   1  12
ATOM     12  N1   11 d          -8.743 208.487 113.061  0.00  0.00    -0.255 NA
ATOM     13  C5   11 d          -8.817 209.088 114.233  0.00  0.00     0.018 C 
ATOM     14  C15  11 d         -10.082 209.206 115.058  0.00  0.00     0.066 C 
BRANCH  13  15
ATOM     15  C4   11 d          -7.546 209.622 114.870  0.00  0.00     0.165 C 
BRANCH  15  16
ATOM     16  C1   11 d          -6.558 208.688 115.529  0.00  0.00     0.264 C 
ATOM     17  O1   11 d          -5.844 207.890 114.869  0.00  0.00    -0.265 OA
BRANCH  16  18
ATOM     18  O2   11 d          -6.451 208.718 116.949  0.00  0.00    -0.322 OA
BRANCH  18  19
ATOM     19  C2   11 d          -7.514 207.937 117.554  0.00  0.00     0.174 C 
ATOM     20  C3   11 d          -6.906 206.737 118.260  0.00  0.00     0.034 C 
ENDBRANCH  18  19
ENDBRANCH  16  18
ENDBRANCH  15  16
ENDBRANCH  13  15
ENDBRANCH   1  12
TORSDOF 5
ENDMDL
