MODEL 1
REMARK VINA RESULT:      -7.4      0.000      0.000
REMARK  6 active torsions:
REMARK  status: ('A' for Active; 'I' for Inactive)
REMARK    1  A    between atoms: C1_1  and  C2_4 
REMARK    2  A    between atoms: C2_4  and  P1_5 
REMARK    3  A    between atoms: P1_5  and  C3_6 
REMARK    4  A    between atoms: P1_5  and  C10_14 
REMARK    5  A    between atoms: C6_9  and  O3_10 
REMARK    6  A    between atoms: C13_17  and  O4_18 
ROOT
ATOM      1  P1   11 d         -12.838 207.151 113.349  0.00  0.00     0.148 P 
ATOM      2  O5   11 d         -13.877 208.126 113.159  0.00  0.00    -0.311 OA
ENDROOT
BRANCH   1   3
ATOM      3  C2   11 d         -12.752 206.150 111.994  0.00  0.00     0.196 C 
BRANCH   3   4
ATOM      4  C1   11 d         -13.845 206.272 110.965  0.00  0.00     0.180 C 
ATOM      5  O1   11 d         -13.718 207.049 109.921  0.00  0.00    -0.648 OA
ATOM      6  O2   11 d         -14.859 205.448 111.026  0.00  0.00    -0.648 OA
ENDBRANCH   3   4
ENDBRANCH   1   3
BRANCH   1   7
ATOM      7  C3   11 d         -13.287 206.191 114.632  0.00  0.00     0.009 A 
ATOM      8  C4   11 d         -14.632 205.768 114.738  0.00  0.00     0.018 A 
ATOM      9  C5   11 d         -15.052 204.977 115.817  0.00  0.00     0.038 A 
ATOM     10  C6   11 d         -14.145 204.611 116.822  0.00  0.00     0.068 A 
ATOM     11  C8   11 d         -12.797 204.976 116.701  0.00  0.00     0.038 A 
ATOM     12  C9   11 d         -12.370 205.768 115.623  0.00  0.00     0.018 A 
BRANCH  10  13
ATOM     13  O3   11 d         -14.561 203.765 117.885  0.00  0.00    -0.356 OA
ATOM     14  C7   11 d         -15.650 202.925 117.426  0.00  0.00     0.210 C 
ENDBRANCH  10  13
ENDBRANCH   1   7
BRANCH   1  15
ATOM     15  C10  11 d         -11.419 207.963 113.672  0.00  0.00     0.009 A 
ATOM     16  C11  11 d         -11.144 208.579 114.915  0.00  0.00     0.018 A 
ATOM     17  C12  11 d          -9.940 209.271 115.118  0.00  0.00     0.038 A 
ATOM     18  C13  11 d          -9.004 209.390 114.080  0.00  0.00     0.068 A 
ATOM     19  C15  11 d          -9.240 208.737 112.862  0.00  0.00     0.038 A 
ATOM     20  C16  11 d         -10.439 208.040 112.654  0.00  0.00     0.018 A 
BRANCH  18  21
ATOM     21  O4   11 d          -7.770 210.062 114.298  0.00  0.00    -0.356 OA
ATOM     22  C14  11 d          -6.716 209.359 113.596  0.00  0.00     0.210 C 
ENDBRANCH  18  21
ENDBRANCH   1  15
TORSDOF 6
ENDMDL
MODEL 2
REMARK VINA RESULT:      -7.1      1.961      6.091
REMARK  6 active torsions:
REMARK  status: ('A' for Active; 'I' for Inactive)
REMARK    1  A    between atoms: C1_1  and  C2_4 
REMARK    2  A    between atoms: C2_4  and  P1_5 
REMARK    3  A    between atoms: P1_5  and  C3_6 
REMARK    4  A    between atoms: P1_5  and  C10_14 
REMARK    5  A    between atoms: C6_9  and  O3_10 
REMARK    6  A    between atoms: C13_17  and  O4_18 
ROOT
ATOM      1  P1   11 d         -12.835 207.010 114.125  0.00  0.00     0.148 P 
ATOM      2  O5   11 d         -12.896 205.718 113.498  0.00  0.00    -0.311 OA
ENDROOT
BRANCH   1   3
ATOM      3  C2   11 d         -14.090 207.976 113.544  0.00  0.00     0.196 C 
BRANCH   3   4
ATOM      4  C1   11 d         -15.076 207.346 112.596  0.00  0.00     0.180 C 
ATOM      5  O1   11 d         -16.239 206.913 113.007  0.00  0.00    -0.648 OA
ATOM      6  O2   11 d         -14.834 207.399 111.312  0.00  0.00    -0.648 OA
ENDBRANCH   3   4
ENDBRANCH   1   3
BRANCH   1   7
ATOM      7  C3   11 d         -11.412 207.727 113.647  0.00  0.00     0.009 A 
ATOM      8  C4   11 d         -11.071 207.732 112.275  0.00  0.00     0.018 A 
ATOM      9  C5   11 d          -9.868 208.307 111.837  0.00  0.00     0.038 A 
ATOM     10  C6   11 d          -8.974 208.868 112.760  0.00  0.00     0.068 A 
ATOM     11  C8   11 d          -9.325 208.919 114.117  0.00  0.00     0.038 A 
ATOM     12  C9   11 d         -10.527 208.345 114.561  0.00  0.00     0.018 A 
BRANCH  10  13
ATOM     13  O3   11 d          -7.783 209.498 112.309  0.00  0.00    -0.356 OA
ATOM     14  C7   11 d          -6.713 209.217 113.245  0.00  0.00     0.210 C 
ENDBRANCH  10  13
ENDBRANCH   1   7
BRANCH   1  15
ATOM     15  C10  11 d         -12.873 206.787 115.776  0.00  0.00     0.009 A 
ATOM     16  C11  11 d         -13.498 207.692 116.666  0.00  0.00     0.018 A 
ATOM     17  C12  11 d         -13.473 207.464 118.050  0.00  0.00     0.038 A 
ATOM     18  C13  11 d         -12.801 206.349 118.576  0.00  0.00     0.068 A 
ATOM     19  C15  11 d         -12.226 205.418 117.701  0.00  0.00     0.038 A 
ATOM     20  C16  11 d         -12.251 205.637 116.316  0.00  0.00     0.018 A 
BRANCH  18  21
ATOM     21  O4   11 d         -12.807 206.101 119.976  0.00  0.00    -0.356 OA
ATOM     22  C14  11 d         -14.040 205.432 120.334  0.00  0.00     0.210 C 
ENDBRANCH  18  21
ENDBRANCH   1  15
TORSDOF 6
ENDMDL
MODEL 3
REMARK VINA RESULT:      -7.1      2.440      4.476
REMARK  6 active torsions:
REMARK  status: ('A' for Active; 'I' for Inactive)
REMARK    1  A    between atoms: C1_1  and  C2_4 
REMARK    2  A    between atoms: C2_4  and  P1_5 
REMARK    3  A    between atoms: P1_5  and  C3_6 
REMARK    4  A    between atoms: P1_5  and  C10_14 
REMARK    5  A    between atoms: C6_9  and  O3_10 
REMARK    6  A    between atoms: C13_17  and  O4_18 
ROOT
ATOM      1  P1   11 d         -12.072 207.038 115.746  0.00  0.00     0.148 P 
ATOM      2  O5   11 d         -11.600 205.730 116.109  0.00  0.00    -0.311 OA
ENDROOT
BRANCH   1   3
ATOM      3  C2   11 d         -12.457 207.903 117.143  0.00  0.00     0.196 C 
BRANCH   3   4
ATOM      4  C1   11 d         -11.663 207.609 118.388  0.00  0.00     0.180 C 
ATOM      5  O1   11 d         -10.668 208.370 118.760  0.00  0.00    -0.648 OA
ATOM      6  O2   11 d         -12.096 206.682 119.203  0.00  0.00    -0.648 OA
ENDBRANCH   3   4
ENDBRANCH   1   3
BRANCH   1   7
ATOM      7  C3   11 d         -13.488 206.838 114.896  0.00  0.00     0.009 A 
ATOM      8  C4   11 d         -14.386 205.817 115.284  0.00  0.00     0.018 A 
ATOM      9  C5   11 d         -15.578 205.603 114.577  0.00  0.00     0.038 A 
ATOM     10  C6   11 d         -15.888 206.389 113.458  0.00  0.00     0.068 A 
ATOM     11  C8   11 d         -15.034 207.440 113.095  0.00  0.00     0.038 A 
ATOM     12  C9   11 d         -13.839 207.659 113.798  0.00  0.00     0.018 A 
BRANCH  10  13
ATOM     13  O3   11 d         -17.122 206.206 112.777  0.00  0.00    -0.356 OA
ATOM     14  C7   11 d         -16.908 206.371 111.353  0.00  0.00     0.210 C 
ENDBRANCH  10  13
ENDBRANCH   1   7
BRANCH   1  15
ATOM     15  C10  11 d         -10.904 207.768 114.808  0.00  0.00     0.009 A 
ATOM     16  C11  11 d         -10.092 208.830 115.270  0.00  0.00     0.018 A 
ATOM     17  C12  11 d          -9.142 209.423 114.424  0.00  0.00     0.038 A 
ATOM     18  C13  11 d          -9.005 208.992 113.096  0.00  0.00     0.068 A 
ATOM     19  C15  11 d          -9.765 207.905 112.644  0.00  0.00     0.038 A 
ATOM     20  C16  11 d         -10.713 207.304 113.486  0.00  0.00     0.018 A 
BRANCH  18  21
ATOM     21  O4   11 d          -8.019 209.570 112.249  0.00  0.00    -0.356 OA
ATOM     22  C14  11 d          -7.040 208.561 111.904  0.00  0.00     0.210 C 
ENDBRANCH  18  21
ENDBRANCH   1  15
TORSDOF 6
ENDMDL
MODEL 4
REMARK VINA RESULT:      -7.0      1.934      2.477
REMARK  6 active torsions:
REMARK  status: ('A' for Active; 'I' for Inactive)
REMARK    1  A    between atoms: C1_1  and  C2_4 
REMARK    2  A    between atoms: C2_4  and  P1_5 
REMARK    3  A    between atoms: P1_5  and  C3_6 
REMARK    4  A    between atoms: P1_5  and  C10_14 
REMARK    5  A    between atoms: C6_9  and  O3_10 
REMARK    6  A    between atoms: C13_17  and  O4_18 
ROOT
ATOM      1  P1   11 d         -13.190 207.255 114.079  0.00  0.00     0.148 P 
ATOM      2  O5   11 d         -14.101 208.363 113.990  0.00  0.00    -0.311 OA
ENDROOT
BRANCH   1   3
ATOM      3  C2   11 d         -13.856 205.916 113.298  0.00  0.00     0.196 C 
BRANCH   3   4
ATOM      4  C1   11 d         -15.355 205.856 113.169  0.00  0.00     0.180 C 
ATOM      5  O1   11 d         -15.939 205.761 112.004  0.00  0.00    -0.648 OA
ATOM      6  O2   11 d         -16.072 205.715 114.254  0.00  0.00    -0.648 OA
ENDBRANCH   3   4
ENDBRANCH   1   3
BRANCH   1   7
ATOM      7  C3   11 d         -13.050 206.855 115.689  0.00  0.00     0.009 A 
ATOM      8  C4   11 d         -13.616 207.709 116.662  0.00  0.00     0.018 A 
ATOM      9  C5   11 d         -13.499 207.417 118.029  0.00  0.00     0.038 A 
ATOM     10  C6   11 d         -12.797 206.279 118.451  0.00  0.00     0.068 A 
ATOM     11  C8   11 d         -12.278 205.394 117.496  0.00  0.00     0.038 A 
ATOM     12  C9   11 d         -12.392 205.682 116.127  0.00  0.00     0.018 A 
BRANCH  10  13
ATOM     13  O3   11 d         -12.726 205.957 119.833  0.00  0.00    -0.356 OA
ATOM     14  C7   11 d         -14.068 205.757 120.344  0.00  0.00     0.210 C 
ENDBRANCH  10  13
ENDBRANCH   1   7
BRANCH   1  15
ATOM     15  C10  11 d         -11.724 207.736 113.448  0.00  0.00     0.009 A 
ATOM     16  C11  11 d         -11.402 207.636 112.075  0.00  0.00     0.018 A 
ATOM     17  C12  11 d         -10.140 208.033 111.607  0.00  0.00     0.038 A 
ATOM     18  C13  11 d          -9.167 208.508 112.500  0.00  0.00     0.068 A 
ATOM     19  C15  11 d          -9.494 208.664 113.854  0.00  0.00     0.038 A 
ATOM     20  C16  11 d         -10.755 208.272 114.327  0.00  0.00     0.018 A 
BRANCH  18  21
ATOM     21  O4   11 d          -7.901 208.943 112.020  0.00  0.00    -0.356 OA
ATOM     22  C14  11 d          -6.959 208.963 113.119  0.00  0.00     0.210 C 
ENDBRANCH  18  21
ENDBRANCH   1  15
TORSDOF 6
ENDMDL
MODEL 5
REMARK VINA RESULT:      -6.9      2.590      7.350
REMARK  6 active torsions:
REMARK  status: ('A' for Active; 'I' for Inactive)
REMARK    1  A    between atoms: C1_1  and  C2_4 
REMARK    2  A    between atoms: C2_4  and  P1_5 
REMARK    3  A    between atoms: P1_5  and  C3_6 
REMARK    4  A    between atoms: P1_5  and  C10_14 
REMARK    5  A    between atoms: C6_9  and  O3_10 
REMARK    6  A    between atoms: C13_17  and  O4_18 
ROOT
ATOM      1  P1   11 d         -13.178 206.674 116.759  0.00  0.00     0.148 P 
ATOM      2  O5   11 d         -13.726 207.883 117.310  0.00  0.00    -0.311 OA
ENDROOT
BRANCH   1   3
ATOM      3  C2   11 d         -11.519 206.621 117.062  0.00  0.00     0.196 C 
BRANCH   3   4
ATOM      4  C1   11 d         -10.827 207.916 117.395  0.00  0.00     0.180 C 
ATOM      5  O1   11 d         -10.476 208.763 116.463  0.00  0.00    -0.648 OA
ATOM      6  O2   11 d         -10.739 208.276 118.649  0.00  0.00    -0.648 OA
ENDBRANCH   3   4
ENDBRANCH   1   3
BRANCH   1   7
ATOM      7  C3   11 d         -13.364 206.753 115.107  0.00  0.00     0.009 A 
ATOM      8  C4   11 d         -12.340 206.249 114.274  0.00  0.00     0.018 A 
ATOM      9  C5   11 d         -12.451 206.319 112.877  0.00  0.00     0.038 A 
ATOM     10  C6   11 d         -13.577 206.910 112.286  0.00  0.00     0.068 A 
ATOM     11  C8   11 d         -14.625 207.364 113.099  0.00  0.00     0.038 A 
ATOM     12  C9   11 d         -14.519 207.297 114.497  0.00  0.00     0.018 A 
BRANCH  10  13
ATOM     13  O3   11 d         -13.712 206.931 110.871  0.00  0.00    -0.356 OA
ATOM     14  C7   11 d         -15.056 207.352 110.528  0.00  0.00     0.210 C 
ENDBRANCH  10  13
ENDBRANCH   1   7
BRANCH   1  15
ATOM     15  C10  11 d         -14.016 205.385 117.399  0.00  0.00     0.009 A 
ATOM     16  C11  11 d         -14.565 204.349 116.609  0.00  0.00     0.018 A 
ATOM     17  C12  11 d         -15.285 203.301 117.204  0.00  0.00     0.038 A 
ATOM     18  C13  11 d         -15.498 203.283 118.591  0.00  0.00     0.068 A 
ATOM     19  C15  11 d         -14.912 204.274 119.390  0.00  0.00     0.038 A 
ATOM     20  C16  11 d         -14.187 205.321 118.802  0.00  0.00     0.018 A 
BRANCH  18  21
ATOM     21  O4   11 d         -16.198 202.203 119.198  0.00  0.00    -0.356 OA
ATOM     22  C14  11 d         -16.757 202.649 120.457  0.00  0.00     0.210 C 
ENDBRANCH  18  21
ENDBRANCH   1  15
TORSDOF 6
ENDMDL
MODEL 6
REMARK VINA RESULT:      -6.9      2.170      4.484
REMARK  6 active torsions:
REMARK  status: ('A' for Active; 'I' for Inactive)
REMARK    1  A    between atoms: C1_1  and  C2_4 
REMARK    2  A    between atoms: C2_4  and  P1_5 
REMARK    3  A    between atoms: P1_5  and  C3_6 
REMARK    4  A    between atoms: P1_5  and  C10_14 
REMARK    5  A    between atoms: C6_9  and  O3_10 
REMARK    6  A    between atoms: C13_17  and  O4_18 
ROOT
ATOM      1  P1   11 d         -12.393 206.867 115.442  0.00  0.00     0.148 P 
ATOM      2  O5   11 d         -11.906 205.604 115.925  0.00  0.00    -0.311 OA
ENDROOT
BRANCH   1   3
ATOM      3  C2   11 d         -13.213 207.665 116.681  0.00  0.00     0.196 C 
BRANCH   3   4
ATOM      4  C1   11 d         -13.002 207.174 118.089  0.00  0.00     0.180 C 
ATOM      5  O1   11 d         -13.736 206.219 118.597  0.00  0.00    -0.648 OA
ATOM      6  O2   11 d         -11.950 207.588 118.747  0.00  0.00    -0.648 OA
ENDBRANCH   3   4
ENDBRANCH   1   3
BRANCH   1   7
ATOM      7  C3   11 d         -13.510 206.546 114.251  0.00  0.00     0.009 A 
ATOM      8  C4   11 d         -14.817 207.068 114.375  0.00  0.00     0.018 A 
ATOM      9  C5   11 d         -15.793 206.799 113.403  0.00  0.00     0.038 A 
ATOM     10  C6   11 d         -15.489 205.988 112.301  0.00  0.00     0.068 A 
ATOM     11  C8   11 d         -14.181 205.508 112.137  0.00  0.00     0.038 A 
ATOM     12  C9   11 d         -13.201 205.774 113.106  0.00  0.00     0.018 A 
BRANCH  10  13
ATOM     13  O3   11 d         -16.462 205.762 111.291  0.00  0.00    -0.356 OA
ATOM     14  C7   11 d         -17.666 206.501 111.617  0.00  0.00     0.210 C 
ENDBRANCH  10  13
ENDBRANCH   1   7
BRANCH   1  15
ATOM     15  C10  11 d         -11.098 207.724 114.837  0.00  0.00     0.009 A 
ATOM     16  C11  11 d         -10.740 207.724 113.469  0.00  0.00     0.018 A 
ATOM     17  C12  11 d          -9.621 208.445 113.023  0.00  0.00     0.038 A 
ATOM     18  C13  11 d          -8.822 209.153 113.934  0.00  0.00     0.068 A 
ATOM     19  C15  11 d          -9.198 209.205 115.283  0.00  0.00     0.038 A 
ATOM     20  C16  11 d         -10.318 208.491 115.734  0.00  0.00     0.018 A 
BRANCH  18  21
ATOM     21  O4   11 d          -7.709 209.911 113.477  0.00  0.00    -0.356 OA
ATOM     22  C14  11 d          -6.686 209.008 112.993  0.00  0.00     0.210 C 
ENDBRANCH  18  21
ENDBRANCH   1  15
TORSDOF 6
ENDMDL
MODEL 7
REMARK VINA RESULT:      -6.8      2.990      5.611
REMARK  6 active torsions:
REMARK  status: ('A' for Active; 'I' for Inactive)
REMARK    1  A    between atoms: C1_1  and  C2_4 
REMARK    2  A    between atoms: C2_4  and  P1_5 
REMARK    3  A    between atoms: P1_5  and  C3_6 
REMARK    4  A    between atoms: P1_5  and  C10_14 
REMARK    5  A    between atoms: C6_9  and  O3_10 
REMARK    6  A    between atoms: C13_17  and  O4_18 
ROOT
ATOM      1  P1   11 d         -13.213 205.874 116.335  0.00  0.00     0.148 P 
ATOM      2  O5   11 d         -11.955 205.207 116.140  0.00  0.00    -0.311 OA
ENDROOT
BRANCH   1   3
ATOM      3  C2   11 d         -12.949 207.362 117.084  0.00  0.00     0.196 C 
BRANCH   3   4
ATOM      4  C1   11 d         -11.550 207.677 117.542  0.00  0.00     0.180 C 
ATOM      5  O1   11 d         -10.685 208.255 116.750  0.00  0.00    -0.648 OA
ATOM      6  O2   11 d         -11.256 207.530 118.808  0.00  0.00    -0.648 OA
ENDBRANCH   3   4
ENDBRANCH   1   3
BRANCH   1   7
ATOM      7  C3   11 d         -14.106 204.951 117.393  0.00  0.00     0.009 A 
ATOM      8  C4   11 d         -14.167 205.329 118.754  0.00  0.00     0.018 A 
ATOM      9  C5   11 d         -14.890 204.563 119.680  0.00  0.00     0.038 A 
ATOM     10  C6   11 d         -15.548 203.394 119.271  0.00  0.00     0.068 A 
ATOM     11  C8   11 d         -15.542 203.037 117.915  0.00  0.00     0.038 A 
ATOM     12  C9   11 d         -14.819 203.800 116.984  0.00  0.00     0.018 A 
BRANCH  10  13
ATOM     13  O3   11 d         -16.325 202.650 120.199  0.00  0.00    -0.356 OA
ATOM     14  C7   11 d         -17.622 203.282 120.349  0.00  0.00     0.210 C 
ENDBRANCH  10  13
ENDBRANCH   1   7
BRANCH   1  15
ATOM     15  C10  11 d         -13.970 205.995 114.855  0.00  0.00     0.009 A 
ATOM     16  C11  11 d         -15.369 206.147 114.711  0.00  0.00     0.018 A 
ATOM     17  C12  11 d         -15.952 206.218 113.436  0.00  0.00     0.038 A 
ATOM     18  C13  11 d         -15.158 206.107 112.284  0.00  0.00     0.068 A 
ATOM     19  C15  11 d         -13.766 206.011 112.414  0.00  0.00     0.038 A 
ATOM     20  C16  11 d         -13.177 205.945 113.685  0.00  0.00     0.018 A 
BRANCH  18  21
ATOM     21  O4   11 d         -15.745 206.213 110.993  0.00  0.00    -0.356 OA
ATOM     22  C14  11 d         -14.845 206.937 110.120  0.00  0.00     0.210 C 
ENDBRANCH  18  21
ENDBRANCH   1  15
TORSDOF 6
ENDMDL
MODEL 8
REMARK VINA RESULT:      -6.7      2.334      5.545
REMARK  6 active torsions:
REMARK  status: ('A' for Active; 'I' for Inactive)
REMARK    1  A    between atoms: C1_1  and  C2_4 
REMARK    2  A    between atoms: C2_4  and  P1_5 
REMARK    3  A    between atoms: P1_5  and  C3_6 
REMARK    4  A    between atoms: P1_5  and  C10_14 
REMARK    5  A    between atoms: C6_9  and  O3_10 
REMARK    6  A    between atoms: C13_17  and  O4_18 
ROOT
ATOM      1  P1   11 d         -11.012 208.310 114.639  0.00  0.00     0.148 P 
ATOM      2  O5   11 d         -11.355 209.692 114.834  0.00  0.00    -0.311 OA
ENDROOT
BRANCH   1   3
ATOM      3  C2   11 d          -9.498 208.206 113.901  0.00  0.00     0.196 C 
BRANCH   3   4
ATOM      4  C1   11 d          -8.790 209.494 113.574  0.00  0.00     0.180 C 
ATOM      5  O1   11 d          -8.015 210.088 114.443  0.00  0.00    -0.648 OA
ATOM      6  O2   11 d          -8.810 209.926 112.340  0.00  0.00    -0.648 OA
ENDBRANCH   3   4
ENDBRANCH   1   3
BRANCH   1   7
ATOM      7  C3   11 d         -12.116 207.670 113.571  0.00  0.00     0.009 A 
ATOM      8  C4   11 d         -11.663 206.807 112.548  0.00  0.00     0.018 A 
ATOM      9  C5   11 d         -12.561 206.267 111.615  0.00  0.00     0.038 A 
ATOM     10  C6   11 d         -13.923 206.594 111.673  0.00  0.00     0.068 A 
ATOM     11  C8   11 d         -14.394 207.405 112.715  0.00  0.00     0.038 A 
ATOM     12  C9   11 d         -13.501 207.948 113.651  0.00  0.00     0.018 A 
BRANCH  10  13
ATOM     13  O3   11 d         -14.838 206.003 110.761  0.00  0.00    -0.356 OA
ATOM     14  C7   11 d         -16.191 206.219 111.236  0.00  0.00     0.210 C 
ENDBRANCH  10  13
ENDBRANCH   1   7
BRANCH   1  15
ATOM     15  C10  11 d         -11.088 207.544 116.117  0.00  0.00     0.009 A 
ATOM     16  C11  11 d         -11.695 206.280 116.303  0.00  0.00     0.018 A 
ATOM     17  C12  11 d         -11.752 205.696 117.578  0.00  0.00     0.038 A 
ATOM     18  C13  11 d         -11.236 206.372 118.694  0.00  0.00     0.068 A 
ATOM     19  C15  11 d         -10.584 207.599 118.513  0.00  0.00     0.038 A 
ATOM     20  C16  11 d         -10.519 208.186 117.241  0.00  0.00     0.018 A 
BRANCH  18  21
ATOM     21  O4   11 d         -11.264 205.765 119.979  0.00  0.00    -0.356 OA
ATOM     22  C14  11 d          -9.913 205.684 120.495  0.00  0.00     0.210 C 
ENDBRANCH  18  21
ENDBRANCH   1  15
TORSDOF 6
ENDMDL
MODEL 9
REMARK VINA RESULT:      -6.3      4.366      7.962
REMARK  6 active torsions:
REMARK  status: ('A' for Active; 'I' for Inactive)
REMARK    1  A    between atoms: C1_1  and  C2_4 
REMARK    2  A    between atoms: C2_4  and  P1_5 
REMARK    3  A    between atoms: P1_5  and  C3_6 
REMARK    4  A    between atoms: P1_5  and  C10_14 
REMARK    5  A    between atoms: C6_9  and  O3_10 
REMARK    6  A    between atoms: C13_17  and  O4_18 
ROOT
ATOM      1  P1   11 d          -6.066 209.992 114.975  0.00  0.00     0.148 P 
ATOM      2  O5   11 d          -6.275 211.400 115.177  0.00  0.00    -0.311 OA
ENDROOT
BRANCH   1   3
ATOM      3  C2   11 d          -4.638 209.755 114.109  0.00  0.00     0.196 C 
BRANCH   3   4
ATOM      4  C1   11 d          -3.760 208.599 114.510  0.00  0.00     0.180 C 
ATOM      5  O1   11 d          -2.760 208.755 115.338  0.00  0.00    -0.648 OA
ATOM      6  O2   11 d          -4.118 207.390 114.163  0.00  0.00    -0.648 OA
ENDBRANCH   3   4
ENDBRANCH   1   3
BRANCH   1   7
ATOM      7  C3   11 d          -7.309 209.437 114.018  0.00  0.00     0.009 A 
ATOM      8  C4   11 d          -7.007 208.860 112.764  0.00  0.00     0.018 A 
ATOM      9  C5   11 d          -8.031 208.403 111.919  0.00  0.00     0.038 A 
ATOM     10  C6   11 d          -9.373 208.531 112.302  0.00  0.00     0.068 A 
ATOM     11  C8   11 d          -9.684 209.051 113.566  0.00  0.00     0.038 A 
ATOM     12  C9   11 d          -8.665 209.511 114.414  0.00  0.00     0.018 A 
BRANCH  10  13
ATOM     13  O3   11 d         -10.404 208.018 111.469  0.00  0.00    -0.356 OA
ATOM     14  C7   11 d         -11.363 207.300 112.287  0.00  0.00     0.210 C 
ENDBRANCH  10  13
ENDBRANCH   1   7
BRANCH   1  15
ATOM     15  C10  11 d          -6.075 209.248 116.466  0.00  0.00     0.009 A 
ATOM     16  C11  11 d          -6.601 207.954 116.682  0.00  0.00     0.018 A 
ATOM     17  C12  11 d          -6.605 207.390 117.968  0.00  0.00     0.038 A 
ATOM     18  C13  11 d          -6.114 208.115 119.064  0.00  0.00     0.068 A 
ATOM     19  C15  11 d          -5.540 209.376 118.853  0.00  0.00     0.038 A 
ATOM     20  C16  11 d          -5.529 209.943 117.570  0.00  0.00     0.018 A 
BRANCH  18  21
ATOM     21  O4   11 d          -6.087 207.530 120.360  0.00  0.00    -0.356 OA
ATOM     22  C14  11 d          -6.636 206.192 120.288  0.00  0.00     0.210 C 
ENDBRANCH  18  21
ENDBRANCH   1  15
TORSDOF 6
ENDMDL
MODEL 10
REMARK VINA RESULT:      -6.1      2.076      6.215
REMARK  6 active torsions:
REMARK  status: ('A' for Active; 'I' for Inactive)
REMARK    1  A    between atoms: C1_1  and  C2_4 
REMARK    2  A    between atoms: C2_4  and  P1_5 
REMARK    3  A    between atoms: P1_5  and  C3_6 
REMARK    4  A    between atoms: P1_5  and  C10_14 
REMARK    5  A    between atoms: C6_9  and  O3_10 
REMARK    6  A    between atoms: C13_17  and  O4_18 
ROOT
ATOM      1  P1   11 d         -12.356 207.632 115.270  0.00  0.00     0.148 P 
ATOM      2  O5   11 d         -12.596 209.032 115.490  0.00  0.00    -0.311 OA
ENDROOT
BRANCH   1   3
ATOM      3  C2   11 d         -10.706 207.376 115.029  0.00  0.00     0.196 C 
BRANCH   3   4
ATOM      4  C1   11 d          -9.905 208.500 114.427  0.00  0.00     0.180 C 
ATOM      5  O1   11 d          -9.950 208.764 113.148  0.00  0.00    -0.648 OA
ATOM      6  O2   11 d          -9.295 209.335 115.229  0.00  0.00    -0.648 OA
ENDBRANCH   3   4
ENDBRANCH   1   3
BRANCH   1   7
ATOM      7  C3   11 d         -13.123 207.214 113.854  0.00  0.00     0.009 A 
ATOM      8  C4   11 d         -14.464 207.613 113.653  0.00  0.00     0.018 A 
ATOM      9  C5   11 d         -15.151 207.259 112.482  0.00  0.00     0.038 A 
ATOM     10  C6   11 d         -14.520 206.483 111.499  0.00  0.00     0.068 A 
ATOM     11  C8   11 d         -13.173 206.127 111.660  0.00  0.00     0.038 A 
ATOM     12  C9   11 d         -12.481 206.478 112.830  0.00  0.00     0.018 A 
BRANCH  10  13
ATOM     13  O3   11 d         -15.199 206.172 110.291  0.00  0.00    -0.356 OA
ATOM     14  C7   11 d         -15.116 207.308 109.393  0.00  0.00     0.210 C 
ENDBRANCH  10  13
ENDBRANCH   1   7
BRANCH   1  15
ATOM     15  C10  11 d         -12.981 206.790 116.566  0.00  0.00     0.009 A 
ATOM     16  C11  11 d         -13.316 205.417 116.507  0.00  0.00     0.018 A 
ATOM     17  C12  11 d         -13.864 204.768 117.625  0.00  0.00     0.038 A 
ATOM     18  C13  11 d         -14.116 205.479 118.808  0.00  0.00     0.068 A 
ATOM     19  C15  11 d         -13.738 206.826 118.895  0.00  0.00     0.038 A 
ATOM     20  C16  11 d         -13.185 207.479 117.783  0.00  0.00     0.018 A 
BRANCH  18  21
ATOM     21  O4   11 d         -14.639 204.813 119.950  0.00  0.00    -0.356 OA
ATOM     22  C14  11 d         -13.886 205.215 121.120  0.00  0.00     0.210 C 
ENDBRANCH  18  21
ENDBRANCH   1  15
TORSDOF 6
ENDMDL
