MODEL 1
REMARK VINA RESULT:      -6.6      0.000      0.000
REMARK  3 active torsions:
REMARK  status: ('A' for Active; 'I' for Inactive)
REMARK    1  A    between atoms: C1_1  and  O1_2 
REMARK    2  A    between atoms: O1_2  and  C2_3 
REMARK    3  A    between atoms: C9_11  and  O2_12 
ROOT
ATOM      1  O1   11 d         -13.247 206.677 112.310  0.00  0.00    -0.346 OA
ENDROOT
BRANCH   1   2
ATOM      2  C1   11 d         -11.952 207.269 112.282  0.00  0.00     0.069 A 
ATOM      3  C7   11 d         -11.365 207.712 113.479  0.00  0.00     0.039 A 
ATOM      4  C8   11 d         -10.122 208.362 113.462  0.00  0.00     0.039 A 
ATOM      5  C9   11 d          -9.456 208.571 112.244  0.00  0.00     0.068 A 
ATOM      6  C11  11 d         -10.080 208.199 111.041  0.00  0.00     0.039 A 
ATOM      7  C12  11 d         -11.325 207.552 111.056  0.00  0.00     0.039 A 
BRANCH   5   8
ATOM      8  O2   11 d          -8.242 209.303 112.219  0.00  0.00    -0.356 OA
ATOM      9  C10  11 d          -7.139 208.421 111.890  0.00  0.00     0.210 C 
ENDBRANCH   5   8
ENDBRANCH   1   2
BRANCH   1  10
ATOM     10  C2   11 d         -13.761 206.448 110.970  0.00  0.00     0.132 C 
ATOM     11  C3   11 d         -14.958 207.392 110.783  0.00  0.00     0.060 C 
ATOM     12  C4   11 d         -16.087 207.049 111.772  0.00  0.00     0.235 C 
ATOM     13  N1   11 d         -16.496 205.612 111.682  0.00  0.00    -0.075 N 
ATOM     14  C5   11 d         -15.346 204.663 111.810  0.00  0.00     0.235 C 
ATOM     15  H6   11 d         -17.204 205.404 112.462  0.00  0.00     0.277 HD
ATOM     16  H7   11 d         -16.995 205.442 110.747  0.00  0.00     0.277 HD
ATOM     17  C6   11 d         -14.222 204.988 110.813  0.00  0.00     0.060 C 
ENDBRANCH   1  10
TORSDOF 3
ENDMDL
MODEL 2
REMARK VINA RESULT:      -6.2      1.827      2.482
REMARK  3 active torsions:
REMARK  status: ('A' for Active; 'I' for Inactive)
REMARK    1  A    between atoms: C1_1  and  O1_2 
REMARK    2  A    between atoms: O1_2  and  C2_3 
REMARK    3  A    between atoms: C9_11  and  O2_12 
ROOT
ATOM      1  O1   11 d         -13.711 207.423 112.274  0.00  0.00    -0.346 OA
ENDROOT
BRANCH   1   2
ATOM      2  C1   11 d         -12.618 207.666 113.152  0.00  0.00     0.069 A 
ATOM      3  C7   11 d         -12.867 208.073 114.475  0.00  0.00     0.039 A 
ATOM      4  C8   11 d         -11.803 208.386 115.333  0.00  0.00     0.039 A 
ATOM      5  C9   11 d         -10.479 208.293 114.874  0.00  0.00     0.068 A 
ATOM      6  C11  11 d         -10.234 207.963 113.530  0.00  0.00     0.039 A 
ATOM      7  C12  11 d         -11.298 207.654 112.669  0.00  0.00     0.039 A 
BRANCH   5   8
ATOM      8  O2   11 d          -9.409 208.692 115.715  0.00  0.00    -0.356 OA
ATOM      9  C10  11 d          -9.626 208.197 117.061  0.00  0.00     0.210 C 
ENDBRANCH   5   8
ENDBRANCH   1   2
BRANCH   1  10
ATOM     10  C2   11 d         -13.930 206.000 112.073  0.00  0.00     0.132 C 
ATOM     11  C3   11 d         -14.724 205.850 110.767  0.00  0.00     0.060 C 
ATOM     12  C4   11 d         -16.107 206.514 110.886  0.00  0.00     0.235 C 
ATOM     13  N1   11 d         -16.878 206.004 112.063  0.00  0.00    -0.075 N 
ATOM     14  C5   11 d         -16.115 206.089 113.348  0.00  0.00     0.235 C 
ATOM     15  H6   11 d         -17.782 206.574 112.159  0.00  0.00     0.277 HD
ATOM     16  H7   11 d         -17.163 204.985 111.885  0.00  0.00     0.277 HD
ATOM     17  C6   11 d         -14.740 205.411 113.243  0.00  0.00     0.060 C 
ENDBRANCH   1  10
TORSDOF 3
ENDMDL
MODEL 3
REMARK VINA RESULT:      -6.1      2.051      2.930
REMARK  3 active torsions:
REMARK  status: ('A' for Active; 'I' for Inactive)
REMARK    1  A    between atoms: C1_1  and  O1_2 
REMARK    2  A    between atoms: O1_2  and  C2_3 
REMARK    3  A    between atoms: C9_11  and  O2_12 
ROOT
ATOM      1  O1   11 d         -11.304 208.051 112.917  0.00  0.00    -0.346 OA
ENDROOT
BRANCH   1   2
ATOM      2  C1   11 d          -9.965 208.464 113.168  0.00  0.00     0.069 A 
ATOM      3  C7   11 d          -9.610 208.929 114.446  0.00  0.00     0.039 A 
ATOM      4  C8   11 d          -8.315 209.408 114.692  0.00  0.00     0.039 A 
ATOM      5  C9   11 d          -7.364 209.422 113.660  0.00  0.00     0.068 A 
ATOM      6  C11  11 d          -7.742 209.031 112.364  0.00  0.00     0.039 A 
ATOM      7  C12  11 d          -9.039 208.556 112.115  0.00  0.00     0.039 A 
BRANCH   5   8
ATOM      8  O2   11 d          -6.082 209.985 113.887  0.00  0.00    -0.356 OA
ATOM      9  C10  11 d          -6.019 210.551 115.221  0.00  0.00     0.210 C 
ENDBRANCH   5   8
ENDBRANCH   1   2
BRANCH   1  10
ATOM     10  C2   11 d         -11.407 206.604 112.810  0.00  0.00     0.132 C 
ATOM     11  C3   11 d         -12.135 206.304 111.491  0.00  0.00     0.060 C 
ATOM     12  C4   11 d         -13.568 206.866 111.515  0.00  0.00     0.235 C 
ATOM     13  N1   11 d         -14.344 206.377 112.698  0.00  0.00    -0.075 N 
ATOM     14  C5   11 d         -13.641 206.609 113.999  0.00  0.00     0.235 C 
ATOM     15  H6   11 d         -15.292 206.881 112.723  0.00  0.00     0.277 HD
ATOM     16  H7   11 d         -14.544 205.329 112.584  0.00  0.00     0.277 HD
ATOM     17  C6   11 d         -12.215 206.035 113.990  0.00  0.00     0.060 C 
ENDBRANCH   1  10
TORSDOF 3
ENDMDL
MODEL 4
REMARK VINA RESULT:      -6.0      3.414      5.998
REMARK  3 active torsions:
REMARK  status: ('A' for Active; 'I' for Inactive)
REMARK    1  A    between atoms: C1_1  and  O1_2 
REMARK    2  A    between atoms: O1_2  and  C2_3 
REMARK    3  A    between atoms: C9_11  and  O2_12 
ROOT
ATOM      1  O1   11 d         -11.559 206.432 115.087  0.00  0.00    -0.346 OA
ENDROOT
BRANCH   1   2
ATOM      2  C1   11 d         -12.293 206.230 113.884  0.00  0.00     0.069 A 
ATOM      3  C7   11 d         -11.693 206.525 112.648  0.00  0.00     0.039 A 
ATOM      4  C8   11 d         -12.424 206.401 111.457  0.00  0.00     0.039 A 
ATOM      5  C9   11 d         -13.762 205.976 111.496  0.00  0.00     0.068 A 
ATOM      6  C11  11 d         -14.384 205.757 112.737  0.00  0.00     0.039 A 
ATOM      7  C12  11 d         -13.655 205.886 113.929  0.00  0.00     0.039 A 
BRANCH   5   8
ATOM      8  O2   11 d         -14.525 205.933 110.301  0.00  0.00    -0.356 OA
ATOM      9  C10  11 d         -14.915 207.275 109.914  0.00  0.00     0.210 C 
ENDBRANCH   5   8
ENDBRANCH   1   2
BRANCH   1  10
ATOM     10  C2   11 d         -12.085 207.551 115.854  0.00  0.00     0.132 C 
ATOM     11  C3   11 d         -11.544 208.832 115.203  0.00  0.00     0.060 C 
ATOM     12  C4   11 d         -10.008 208.891 115.299  0.00  0.00     0.235 C 
ATOM     13  N1   11 d          -9.527 208.741 116.709  0.00  0.00    -0.075 N 
ATOM     14  C5   11 d         -10.075 207.527 117.392  0.00  0.00     0.235 C 
ATOM     15  H6   11 d          -8.455 208.681 116.704  0.00  0.00     0.277 HD
ATOM     16  H7   11 d          -9.794 209.616 117.270  0.00  0.00     0.277 HD
ATOM     17  C6   11 d         -11.609 207.471 117.315  0.00  0.00     0.060 C 
ENDBRANCH   1  10
TORSDOF 3
ENDMDL
MODEL 5
REMARK VINA RESULT:      -6.0      3.133      6.385
REMARK  3 active torsions:
REMARK  status: ('A' for Active; 'I' for Inactive)
REMARK    1  A    between atoms: C1_1  and  O1_2 
REMARK    2  A    between atoms: O1_2  and  C2_3 
REMARK    3  A    between atoms: C9_11  and  O2_12 
ROOT
ATOM      1  O1   11 d          -9.727 207.791 113.519  0.00  0.00    -0.346 OA
ENDROOT
BRANCH   1   2
ATOM      2  C1   11 d         -11.088 207.640 113.130  0.00  0.00     0.069 A 
ATOM      3  C7   11 d         -12.110 208.017 114.018  0.00  0.00     0.039 A 
ATOM      4  C8   11 d         -13.456 207.810 113.681  0.00  0.00     0.039 A 
ATOM      5  C9   11 d         -13.788 207.225 112.448  0.00  0.00     0.068 A 
ATOM      6  C11  11 d         -12.765 206.777 111.596  0.00  0.00     0.039 A 
ATOM      7  C12  11 d         -11.418 206.980 111.934  0.00  0.00     0.039 A 
BRANCH   5   8
ATOM      8  O2   11 d         -15.143 206.937 112.145  0.00  0.00    -0.356 OA
ATOM      9  C10  11 d         -15.372 207.077 110.720  0.00  0.00     0.210 C 
ENDBRANCH   5   8
ENDBRANCH   1   2
BRANCH   1  10
ATOM     10  C2   11 d          -9.349 209.192 113.616  0.00  0.00     0.132 C 
ATOM     11  C3   11 d          -8.855 209.618 112.226  0.00  0.00     0.060 C 
ATOM     12  C4   11 d          -7.595 208.830 111.826  0.00  0.00     0.235 C 
ATOM     13  N1   11 d          -6.513 208.939 112.855  0.00  0.00    -0.075 N 
ATOM     14  C5   11 d          -6.973 208.578 114.233  0.00  0.00     0.235 C 
ATOM     15  H6   11 d          -5.705 208.288 112.579  0.00  0.00     0.277 HD
ATOM     16  H7   11 d          -6.126 209.940 112.860  0.00  0.00     0.277 HD
ATOM     17  C6   11 d          -8.221 209.374 114.647  0.00  0.00     0.060 C 
ENDBRANCH   1  10
TORSDOF 3
ENDMDL
MODEL 6
REMARK VINA RESULT:      -5.9      3.185      4.375
REMARK  3 active torsions:
REMARK  status: ('A' for Active; 'I' for Inactive)
REMARK    1  A    between atoms: C1_1  and  O1_2 
REMARK    2  A    between atoms: O1_2  and  C2_3 
REMARK    3  A    between atoms: C9_11  and  O2_12 
ROOT
ATOM      1  O1   11 d         -14.638 207.624 112.786  0.00  0.00    -0.346 OA
ENDROOT
BRANCH   1   2
ATOM      2  C1   11 d         -14.097 207.565 114.102  0.00  0.00     0.069 A 
ATOM      3  C7   11 d         -12.846 208.149 114.364  0.00  0.00     0.039 A 
ATOM      4  C8   11 d         -12.264 208.038 115.636  0.00  0.00     0.039 A 
ATOM      5  C9   11 d         -12.934 207.344 116.656  0.00  0.00     0.068 A 
ATOM      6  C11  11 d         -14.147 206.694 116.372  0.00  0.00     0.039 A 
ATOM      7  C12  11 d         -14.727 206.800 115.098  0.00  0.00     0.039 A 
BRANCH   5   8
ATOM      8  O2   11 d         -12.308 207.160 117.915  0.00  0.00    -0.356 OA
ATOM      9  C10  11 d         -11.155 208.034 118.028  0.00  0.00     0.210 C 
ENDBRANCH   5   8
ENDBRANCH   1   2
BRANCH   1  10
ATOM     10  C2   11 d         -14.761 206.299 112.198  0.00  0.00     0.132 C 
ATOM     11  C3   11 d         -13.377 205.924 111.649  0.00  0.00     0.060 C 
ATOM     12  C4   11 d         -12.952 206.887 110.526  0.00  0.00     0.235 C 
ATOM     13  N1   11 d         -13.975 206.968 109.437  0.00  0.00    -0.075 N 
ATOM     14  C5   11 d         -15.348 207.284 109.941  0.00  0.00     0.235 C 
ATOM     15  H6   11 d         -13.679 207.728 108.739  0.00  0.00     0.277 HD
ATOM     16  H7   11 d         -13.998 206.038 108.901  0.00  0.00     0.277 HD
ATOM     17  C6   11 d         -15.787 206.315 111.051  0.00  0.00     0.060 C 
ENDBRANCH   1  10
TORSDOF 3
ENDMDL
MODEL 7
REMARK VINA RESULT:      -5.7      4.169      7.502
REMARK  3 active torsions:
REMARK  status: ('A' for Active; 'I' for Inactive)
REMARK    1  A    between atoms: C1_1  and  O1_2 
REMARK    2  A    between atoms: O1_2  and  C2_3 
REMARK    3  A    between atoms: C9_11  and  O2_12 
ROOT
ATOM      1  O1   11 d          -7.987 209.996 114.688  0.00  0.00    -0.346 OA
ENDROOT
BRANCH   1   2
ATOM      2  C1   11 d          -8.928 209.352 113.836  0.00  0.00     0.069 A 
ATOM      3  C7   11 d          -9.957 208.578 114.400  0.00  0.00     0.039 A 
ATOM      4  C8   11 d         -10.851 207.878 113.576  0.00  0.00     0.039 A 
ATOM      5  C9   11 d         -10.722 207.949 112.180  0.00  0.00     0.068 A 
ATOM      6  C11  11 d          -9.647 208.659 111.619  0.00  0.00     0.039 A 
ATOM      7  C12  11 d          -8.749 209.356 112.443  0.00  0.00     0.039 A 
BRANCH   5   8
ATOM      8  O2   11 d         -11.572 207.174 111.351  0.00  0.00    -0.356 OA
ATOM      9  C10  11 d         -12.582 206.514 112.156  0.00  0.00     0.210 C 
ENDBRANCH   5   8
ENDBRANCH   1   2
BRANCH   1  10
ATOM     10  C2   11 d          -6.620 209.752 114.256  0.00  0.00     0.132 C 
ATOM     11  C3   11 d          -6.273 208.312 114.662  0.00  0.00     0.060 C 
ATOM     12  C4   11 d          -6.307 208.150 116.192  0.00  0.00     0.235 C 
ATOM     13  N1   11 d          -5.428 209.145 116.883  0.00  0.00    -0.075 N 
ATOM     14  C5   11 d          -5.705 210.558 116.474  0.00  0.00     0.235 C 
ATOM     15  H6   11 d          -5.573 209.058 117.943  0.00  0.00     0.277 HD
ATOM     16  H7   11 d          -4.400 208.912 116.682  0.00  0.00     0.277 HD
ATOM     17  C6   11 d          -5.655 210.732 114.948  0.00  0.00     0.060 C 
ENDBRANCH   1  10
TORSDOF 3
ENDMDL
MODEL 8
REMARK VINA RESULT:      -5.7      3.384      5.699
REMARK  3 active torsions:
REMARK  status: ('A' for Active; 'I' for Inactive)
REMARK    1  A    between atoms: C1_1  and  O1_2 
REMARK    2  A    between atoms: O1_2  and  C2_3 
REMARK    3  A    between atoms: C9_11  and  O2_12 
ROOT
ATOM      1  O1   11 d         -12.294 207.781 115.273  0.00  0.00    -0.346 OA
ENDROOT
BRANCH   1   2
ATOM      2  C1   11 d         -12.715 207.426 113.960  0.00  0.00     0.069 A 
ATOM      3  C7   11 d         -11.764 207.000 113.017  0.00  0.00     0.039 A 
ATOM      4  C8   11 d         -12.150 206.716 111.699  0.00  0.00     0.039 A 
ATOM      5  C9   11 d         -13.493 206.854 111.315  0.00  0.00     0.068 A 
ATOM      6  C11  11 d         -14.429 207.355 112.236  0.00  0.00     0.039 A 
ATOM      7  C12  11 d         -14.043 207.644 113.554  0.00  0.00     0.039 A 
BRANCH   5   8
ATOM      8  O2   11 d         -13.867 206.649 109.963  0.00  0.00    -0.356 OA
ATOM      9  C10  11 d         -15.123 207.319 109.689  0.00  0.00     0.210 C 
ENDBRANCH   5   8
ENDBRANCH   1   2
BRANCH   1  10
ATOM     10  C2   11 d         -11.471 206.742 115.870  0.00  0.00     0.132 C 
ATOM     11  C3   11 d         -12.422 205.625 116.325  0.00  0.00     0.060 C 
ATOM     12  C4   11 d         -13.382 206.133 117.415  0.00  0.00     0.235 C 
ATOM     13  N1   11 d         -12.651 206.741 118.571  0.00  0.00    -0.075 N 
ATOM     14  C5   11 d         -11.678 207.801 118.159  0.00  0.00     0.235 C 
ATOM     15  H6   11 d         -13.367 207.172 119.245  0.00  0.00     0.277 HD
ATOM     16  H7   11 d         -12.132 205.971 119.108  0.00  0.00     0.277 HD
ATOM     17  C6   11 d         -10.703 207.296 117.083  0.00  0.00     0.060 C 
ENDBRANCH   1  10
TORSDOF 3
ENDMDL
MODEL 9
REMARK VINA RESULT:      -5.7      2.797      3.513
REMARK  3 active torsions:
REMARK  status: ('A' for Active; 'I' for Inactive)
REMARK    1  A    between atoms: C1_1  and  O1_2 
REMARK    2  A    between atoms: O1_2  and  C2_3 
REMARK    3  A    between atoms: C9_11  and  O2_12 
ROOT
ATOM      1  O1   11 d         -12.462 206.632 114.837  0.00  0.00    -0.346 OA
ENDROOT
BRANCH   1   2
ATOM      2  C1   11 d         -11.311 207.440 114.615  0.00  0.00     0.069 A 
ATOM      3  C7   11 d         -10.761 208.171 115.682  0.00  0.00     0.039 A 
ATOM      4  C8   11 d          -9.671 209.029 115.467  0.00  0.00     0.039 A 
ATOM      5  C9   11 d          -9.123 209.158 114.181  0.00  0.00     0.068 A 
ATOM      6  C11  11 d          -9.723 208.488 113.101  0.00  0.00     0.039 A 
ATOM      7  C12  11 d         -10.816 207.634 113.314  0.00  0.00     0.039 A 
BRANCH   5   8
ATOM      8  O2   11 d          -8.078 210.088 113.948  0.00  0.00    -0.356 OA
ATOM      9  C10  11 d          -6.989 209.852 114.876  0.00  0.00     0.210 C 
ENDBRANCH   5   8
ENDBRANCH   1   2
BRANCH   1  10
ATOM     10  C2   11 d         -13.460 207.329 115.633  0.00  0.00     0.132 C 
ATOM     11  C3   11 d         -13.843 206.392 116.788  0.00  0.00     0.060 C 
ATOM     12  C4   11 d         -14.498 205.104 116.257  0.00  0.00     0.235 C 
ATOM     13  N1   11 d         -15.667 205.393 115.368  0.00  0.00    -0.075 N 
ATOM     14  C5   11 d         -15.342 206.342 114.257  0.00  0.00     0.235 C 
ATOM     15  H6   11 d         -16.014 204.470 114.943  0.00  0.00     0.277 HD
ATOM     16  H7   11 d         -16.470 205.794 115.955  0.00  0.00     0.277 HD
ATOM     17  C6   11 d         -14.705 207.639 114.782  0.00  0.00     0.060 C 
ENDBRANCH   1  10
TORSDOF 3
ENDMDL
MODEL 10
REMARK VINA RESULT:      -5.7      3.489      4.506
REMARK  3 active torsions:
REMARK  status: ('A' for Active; 'I' for Inactive)
REMARK    1  A    between atoms: C1_1  and  O1_2 
REMARK    2  A    between atoms: O1_2  and  C2_3 
REMARK    3  A    between atoms: C9_11  and  O2_12 
ROOT
ATOM      1  O1   11 d         -14.330 205.684 114.102  0.00  0.00    -0.346 OA
ENDROOT
BRANCH   1   2
ATOM      2  C1   11 d         -13.657 206.143 115.269  0.00  0.00     0.069 A 
ATOM      3  C7   11 d         -14.367 206.870 116.240  0.00  0.00     0.039 A 
ATOM      4  C8   11 d         -13.706 207.392 117.361  0.00  0.00     0.039 A 
ATOM      5  C9   11 d         -12.326 207.187 117.520  0.00  0.00     0.068 A 
ATOM      6  C11  11 d         -11.602 206.529 116.511  0.00  0.00     0.039 A 
ATOM      7  C12  11 d         -12.263 206.010 115.386  0.00  0.00     0.039 A 
BRANCH   5   8
ATOM      8  O2   11 d         -11.643 207.787 118.608  0.00  0.00    -0.356 OA
ATOM      9  C10  11 d         -10.416 208.405 118.143  0.00  0.00     0.210 C 
ENDBRANCH   5   8
ENDBRANCH   1   2
BRANCH   1  10
ATOM     10  C2   11 d         -15.092 206.749 113.470  0.00  0.00     0.132 C 
ATOM     11  C3   11 d         -16.200 206.078 112.645  0.00  0.00     0.060 C 
ATOM     12  C4   11 d         -15.600 205.213 111.521  0.00  0.00     0.235 C 
ATOM     13  N1   11 d         -14.659 205.991 110.654  0.00  0.00    -0.075 N 
ATOM     14  C5   11 d         -13.594 206.701 111.431  0.00  0.00     0.235 C 
ATOM     15  H6   11 d         -14.191 205.319 109.960  0.00  0.00     0.277 HD
ATOM     16  H7   11 d         -15.215 206.706 110.078  0.00  0.00     0.277 HD
ATOM     17  C6   11 d         -14.186 207.580 112.543  0.00  0.00     0.060 C 
ENDBRANCH   1  10
TORSDOF 3
ENDMDL
