REMARK  7 active torsions:
REMARK  status: ('A' for Active; 'I' for Inactive)
REMARK    1  A    between atoms: C1_1  and  O2_3 
REMARK    2  A    between atoms: C1_1  and  C4_6 
REMARK    3  A    between atoms: O2_3  and  C2_4 
REMARK    4  A    between atoms: C4_6  and  N1_7 
REMARK    5  A    between atoms: C4_6  and  C7_11 
REMARK       I    between atoms: N1_7  and  C5_8 
REMARK    6  A    between atoms: C7_11  and  C8_12 
REMARK    7  A    between atoms: C11_15  and  O4_18 
ROOT
ATOM      1  C4   11 d           3.086  -8.897  -5.268  0.00  0.00     0.188 C 
ENDROOT
BRANCH   1   2
ATOM      2  C1   11 d           2.099  -7.754  -5.066  0.00  0.00     0.282 C 
ATOM      3  O1   11 d           2.196  -7.013  -4.054  0.00  0.00    -0.263 OA
BRANCH   2   4
ATOM      4  O2   11 d           0.936  -7.642  -5.873  0.00  0.00    -0.320 OA
BRANCH   4   5
ATOM      5  C2   11 d           1.147  -6.614  -6.873  0.00  0.00     0.174 C 
ATOM      6  C3   11 d          -0.041  -6.585  -7.820  0.00  0.00     0.034 C 
ENDBRANCH   4   5
ENDBRANCH   2   4
ENDBRANCH   1   2
BRANCH   1   7
ATOM      7  N1   11 d           3.848  -9.216  -4.013  0.00  0.00    -0.347 N 
ATOM      8  C5   11 d           5.192  -9.684  -4.052  0.00  0.00     0.214 C 
ATOM      9  O3   11 d           5.788  -9.837  -5.175  0.00  0.00    -0.274 OA
ATOM     10  C6   11 d           5.928 -10.014  -2.791  0.00  0.00     0.117 C 
ATOM     11  H7   11 d           3.364  -9.094  -3.060  0.00  0.00     0.163 HD
ENDBRANCH   1   7
BRANCH   1  12
ATOM     12  C7   11 d           2.453 -10.212  -5.774  0.00  0.00     0.074 C 
BRANCH  12  13
ATOM     13  C8   11 d           1.796 -10.138  -7.134  0.00  0.00    -0.056 A 
ATOM     14  C9   11 d           0.426 -10.440  -7.280  0.00  0.00     0.010 A 
ATOM     15  C10  11 d          -0.181 -10.395  -8.545  0.00  0.00     0.037 A 
ATOM     16  C11  11 d           0.575 -10.065  -9.678  0.00  0.00     0.065 A 
ATOM     17  C12  11 d           1.931  -9.735  -9.538  0.00  0.00     0.037 A 
ATOM     18  C13  11 d           2.545  -9.791  -8.277  0.00  0.00     0.010 A 
BRANCH  16  19
ATOM     19  O4   11 d          -0.054  -9.941 -10.936  0.00  0.00    -0.361 OA
ATOM     20  H17  11 d           0.023 -10.879 -11.367  0.00  0.00     0.217 HD
ENDBRANCH  16  19
ENDBRANCH  12  13
ENDBRANCH   1  12
TORSDOF 7
