MODEL 1
REMARK VINA RESULT:      -7.2      0.000      0.000
REMARK  1 active torsions:
REMARK  status: ('A' for Active; 'I' for Inactive)
REMARK    1  A    between atoms: C1_1  and  N1_13 
ROOT
ATOM      1  C1   11 d         -12.560 206.433 114.160  0.00  0.00     0.200 A 
ATOM      2  C2   11 d         -13.947 206.178 114.051  0.00  0.00     0.086 A 
ATOM      3  C3   11 d         -14.600 206.381 112.814  0.00  0.00     0.022 A 
ATOM      4  C4   11 d         -13.822 206.840 111.721  0.00  0.00     0.091 A 
ATOM      5  O1   11 d         -12.531 207.065 111.871  0.00  0.00    -0.273 OA
ATOM      6  C5   11 d         -11.879 206.887 113.006  0.00  0.00     0.323 A 
ATOM      7  O2   11 d         -10.642 207.110 113.036  0.00  0.00    -0.257 OA
ATOM      8  C6   11 d         -14.419 207.059 110.469  0.00  0.00     0.038 A 
ATOM      9  C7   11 d         -15.789 206.826 110.293  0.00  0.00     0.003 A 
ATOM     10  C8   11 d         -16.569 206.373 111.366  0.00  0.00     0.001 A 
ATOM     11  C9   11 d         -15.981 206.151 112.621  0.00  0.00     0.016 A 
ATOM     12 Cl1   11 d         -14.864 205.632 115.494  0.00  0.00    -0.080 Cl
ENDROOT
BRANCH   1  13
ATOM     13  N1   11 d         -11.902 206.228 115.366  0.00  0.00    -0.107 N 
ATOM     14  O3   11 d         -11.620 205.165 115.684  0.00  0.00    -0.531 OA
ATOM     15  O4   11 d         -11.977 207.113 116.260  0.00  0.00    -0.531 OA
ENDBRANCH   1  13
TORSDOF 1
ENDMDL
MODEL 2
REMARK VINA RESULT:      -7.2      1.910      2.676
REMARK  1 active torsions:
REMARK  status: ('A' for Active; 'I' for Inactive)
REMARK    1  A    between atoms: C1_1  and  N1_13 
ROOT
ATOM      1  C1   11 d         -13.145 206.156 114.627  0.00  0.00     0.200 A 
ATOM      2  C2   11 d         -13.144 206.533 113.263  0.00  0.00     0.086 A 
ATOM      3  C3   11 d         -14.353 206.510 112.530  0.00  0.00     0.022 A 
ATOM      4  C4   11 d         -15.531 206.102 113.206  0.00  0.00     0.091 A 
ATOM      5  O1   11 d         -15.483 205.758 114.478  0.00  0.00    -0.273 OA
ATOM      6  C5   11 d         -14.378 205.766 115.202  0.00  0.00     0.323 A 
ATOM      7  O2   11 d         -14.446 205.442 116.415  0.00  0.00    -0.257 OA
ATOM      8  C6   11 d         -16.758 206.060 112.526  0.00  0.00     0.038 A 
ATOM      9  C7   11 d         -16.827 206.421 111.174  0.00  0.00     0.003 A 
ATOM     10  C8   11 d         -15.669 206.825 110.495  0.00  0.00     0.001 A 
ATOM     11  C9   11 d         -14.437 206.871 111.166  0.00  0.00     0.016 A 
ATOM     12 Cl1   11 d         -11.602 207.004 112.476  0.00  0.00    -0.080 Cl
ENDROOT
BRANCH   1  13
ATOM     13  N1   11 d         -11.969 206.184 115.363  0.00  0.00    -0.107 N 
ATOM     14  O3   11 d         -11.447 205.202 115.635  0.00  0.00    -0.531 OA
ATOM     15  O4   11 d         -11.704 207.205 116.053  0.00  0.00    -0.531 OA
ENDBRANCH   1  13
TORSDOF 1
ENDMDL
MODEL 3
REMARK VINA RESULT:      -6.8      3.020      4.732
REMARK  1 active torsions:
REMARK  status: ('A' for Active; 'I' for Inactive)
REMARK    1  A    between atoms: C1_1  and  N1_13 
ROOT
ATOM      1  C1   11 d         -14.675 206.517 112.489  0.00  0.00     0.200 A 
ATOM      2  C2   11 d         -13.742 206.855 111.480  0.00  0.00     0.086 A 
ATOM      3  C3   11 d         -12.430 207.239 111.840  0.00  0.00     0.022 A 
ATOM      4  C4   11 d         -12.104 207.270 113.220  0.00  0.00     0.091 A 
ATOM      5  O1   11 d         -13.008 206.948 114.125  0.00  0.00    -0.273 OA
ATOM      6  C5   11 d         -14.243 206.582 113.835  0.00  0.00     0.323 A 
ATOM      7  O2   11 d         -15.020 206.273 114.773  0.00  0.00    -0.257 OA
ATOM      8  C6   11 d         -10.816 207.645 113.635  0.00  0.00     0.038 A 
ATOM      9  C7   11 d          -9.844 207.991 112.687  0.00  0.00     0.003 A 
ATOM     10  C8   11 d         -10.155 207.965 111.320  0.00  0.00     0.001 A 
ATOM     11  C9   11 d         -11.440 207.591 110.895  0.00  0.00     0.016 A 
ATOM     12 Cl1   11 d         -14.248 206.822 109.758  0.00  0.00    -0.080 Cl
ENDROOT
BRANCH   1  13
ATOM     13  N1   11 d         -15.963 206.128 112.150  0.00  0.00    -0.107 N 
ATOM     14  O3   11 d         -16.141 205.093 111.694  0.00  0.00    -0.531 OA
ATOM     15  O4   11 d         -16.841 207.014 111.966  0.00  0.00    -0.531 OA
ENDBRANCH   1  13
TORSDOF 1
ENDMDL
MODEL 4
REMARK VINA RESULT:      -6.8      2.814      4.488
REMARK  1 active torsions:
REMARK  status: ('A' for Active; 'I' for Inactive)
REMARK    1  A    between atoms: C1_1  and  N1_13 
ROOT
ATOM      1  C1   11 d         -14.923 206.641 111.858  0.00  0.00     0.200 A 
ATOM      2  C2   11 d         -14.319 206.926 113.105  0.00  0.00     0.086 A 
ATOM      3  C3   11 d         -12.945 207.254 113.159  0.00  0.00     0.022 A 
ATOM      4  C4   11 d         -12.222 207.281 111.939  0.00  0.00     0.091 A 
ATOM      5  O1   11 d         -12.828 207.006 110.800  0.00  0.00    -0.273 OA
ATOM      6  C5   11 d         -14.109 206.698 110.702  0.00  0.00     0.323 A 
ATOM      7  O2   11 d         -14.593 206.476 109.564  0.00  0.00    -0.257 OA
ATOM      8  C6   11 d         -10.855 207.599 111.934  0.00  0.00     0.038 A 
ATOM      9  C7   11 d         -10.196 207.892 113.135  0.00  0.00     0.003 A 
ATOM     10  C8   11 d         -10.900 207.868 114.346  0.00  0.00     0.001 A 
ATOM     11  C9   11 d         -12.267 207.551 114.363  0.00  0.00     0.016 A 
ATOM     12 Cl1   11 d         -15.300 206.836 114.606  0.00  0.00    -0.080 Cl
ENDROOT
BRANCH   1  13
ATOM     13  N1   11 d         -16.274 206.329 111.788  0.00  0.00    -0.107 N 
ATOM     14  O3   11 d         -17.053 207.166 111.845  0.00  0.00    -0.531 OA
ATOM     15  O4   11 d         -16.644 205.156 112.064  0.00  0.00    -0.531 OA
ENDBRANCH   1  13
TORSDOF 1
ENDMDL
MODEL 5
REMARK VINA RESULT:      -6.8      3.135      5.260
REMARK  1 active torsions:
REMARK  status: ('A' for Active; 'I' for Inactive)
REMARK    1  A    between atoms: C1_1  and  N1_13 
ROOT
ATOM      1  C1   11 d         -13.234 206.398 111.724  0.00  0.00     0.200 A 
ATOM      2  C2   11 d         -12.110 207.111 111.246  0.00  0.00     0.086 A 
ATOM      3  C3   11 d         -11.198 207.679 112.165  0.00  0.00     0.022 A 
ATOM      4  C4   11 d         -11.457 207.505 113.548  0.00  0.00     0.091 A 
ATOM      5  O1   11 d         -12.519 206.833 113.947  0.00  0.00    -0.273 OA
ATOM      6  C5   11 d         -13.395 206.284 113.125  0.00  0.00     0.323 A 
ATOM      7  O2   11 d         -14.362 205.644 113.610  0.00  0.00    -0.257 OA
ATOM      8  C6   11 d         -10.585 208.048 114.505  0.00  0.00     0.038 A 
ATOM      9  C7   11 d          -9.452 208.766 114.098  0.00  0.00     0.003 A 
ATOM     10  C8   11 d          -9.187 208.945 112.734  0.00  0.00     0.001 A 
ATOM     11  C9   11 d         -10.052 208.406 111.769  0.00  0.00     0.016 A 
ATOM     12 Cl1   11 d         -11.876 207.313 109.478  0.00  0.00    -0.080 Cl
ENDROOT
BRANCH   1  13
ATOM     13  N1   11 d         -14.132 205.825 110.834  0.00  0.00    -0.107 N 
ATOM     14  O3   11 d         -15.031 206.432 110.468  0.00  0.00    -0.531 OA
ATOM     15  O4   11 d         -14.192 204.569 110.750  0.00  0.00    -0.531 OA
ENDBRANCH   1  13
TORSDOF 1
ENDMDL
MODEL 6
REMARK VINA RESULT:      -6.7      3.303      5.485
REMARK  1 active torsions:
REMARK  status: ('A' for Active; 'I' for Inactive)
REMARK    1  A    between atoms: C1_1  and  N1_13 
ROOT
ATOM      1  C1   11 d         -12.275 207.555 113.547  0.00  0.00     0.200 A 
ATOM      2  C2   11 d         -11.258 207.689 112.573  0.00  0.00     0.086 A 
ATOM      3  C3   11 d         -10.030 208.296 112.921  0.00  0.00     0.022 A 
ATOM      4  C4   11 d          -9.871 208.752 114.254  0.00  0.00     0.091 A 
ATOM      5  O1   11 d         -10.848 208.607 115.128  0.00  0.00    -0.273 OA
ATOM      6  C5   11 d         -12.009 208.044 114.848  0.00  0.00     0.323 A 
ATOM      7  O2   11 d         -12.865 207.934 115.762  0.00  0.00    -0.257 OA
ATOM      8  C6   11 d          -8.673 209.364 114.654  0.00  0.00     0.038 A 
ATOM      9  C7   11 d          -7.625 209.528 113.738  0.00  0.00     0.003 A 
ATOM     10  C8   11 d          -7.772 209.081 112.418  0.00  0.00     0.001 A 
ATOM     11  C9   11 d          -8.966 208.468 112.007  0.00  0.00     0.016 A 
ATOM     12 Cl1   11 d         -11.555 207.114 110.898  0.00  0.00    -0.080 Cl
ENDROOT
BRANCH   1  13
ATOM     13  N1   11 d         -13.482 206.951 113.224  0.00  0.00    -0.107 N 
ATOM     14  O3   11 d         -13.552 205.809 113.186  0.00  0.00    -0.531 OA
ATOM     15  O4   11 d         -14.350 207.618 112.599  0.00  0.00    -0.531 OA
ENDBRANCH   1  13
TORSDOF 1
ENDMDL
MODEL 7
REMARK VINA RESULT:      -6.7      2.873      3.445
REMARK  1 active torsions:
REMARK  status: ('A' for Active; 'I' for Inactive)
REMARK    1  A    between atoms: C1_1  and  N1_13 
ROOT
ATOM      1  C1   11 d         -10.624 207.935 111.831  0.00  0.00     0.200 A 
ATOM      2  C2   11 d         -11.376 207.462 112.933  0.00  0.00     0.086 A 
ATOM      3  C3   11 d         -12.583 206.762 112.708  0.00  0.00     0.022 A 
ATOM      4  C4   11 d         -12.994 206.564 111.365  0.00  0.00     0.091 A 
ATOM      5  O1   11 d         -12.261 207.024 110.370  0.00  0.00    -0.273 OA
ATOM      6  C5   11 d         -11.127 207.681 110.533  0.00  0.00     0.323 A 
ATOM      7  O2   11 d         -10.493 208.057 109.515  0.00  0.00    -0.257 OA
ATOM      8  C6   11 d         -14.185 205.877 111.084  0.00  0.00     0.038 A 
ATOM      9  C7   11 d         -14.976 205.382 112.129  0.00  0.00     0.003 A 
ATOM     10  C8   11 d         -14.581 205.572 113.460  0.00  0.00     0.001 A 
ATOM     11  C9   11 d         -13.391 206.258 113.753  0.00  0.00     0.016 A 
ATOM     12 Cl1   11 d         -10.800 207.786 114.602  0.00  0.00    -0.080 Cl
ENDROOT
BRANCH   1  13
ATOM     13  N1   11 d          -9.431 208.614 112.036  0.00  0.00    -0.107 N 
ATOM     14  O3   11 d          -8.531 208.059 112.475  0.00  0.00    -0.531 OA
ATOM     15  O4   11 d          -9.452 209.872 112.124  0.00  0.00    -0.531 OA
ENDBRANCH   1  13
TORSDOF 1
ENDMDL
MODEL 8
REMARK VINA RESULT:      -6.6      2.429      3.332
REMARK  1 active torsions:
REMARK  status: ('A' for Active; 'I' for Inactive)
REMARK    1  A    between atoms: C1_1  and  N1_13 
ROOT
ATOM      1  C1   11 d         -12.194 207.207 115.157  0.00  0.00     0.200 A 
ATOM      2  C2   11 d         -12.598 206.762 113.876  0.00  0.00     0.086 A 
ATOM      3  C3   11 d         -11.876 207.173 112.733  0.00  0.00     0.022 A 
ATOM      4  C4   11 d         -10.760 208.027 112.925  0.00  0.00     0.091 A 
ATOM      5  O1   11 d         -10.422 208.417 114.139  0.00  0.00    -0.273 OA
ATOM      6  C5   11 d         -11.066 208.057 115.234  0.00  0.00     0.323 A 
ATOM      7  O2   11 d         -10.646 208.467 116.346  0.00  0.00    -0.257 OA
ATOM      8  C6   11 d         -10.007 208.466 111.825  0.00  0.00     0.038 A 
ATOM      9  C7   11 d         -10.353 208.062 110.528  0.00  0.00     0.003 A 
ATOM     10  C8   11 d         -11.454 207.219 110.326  0.00  0.00     0.001 A 
ATOM     11  C9   11 d         -12.214 206.774 111.420  0.00  0.00     0.016 A 
ATOM     12 Cl1   11 d         -14.043 205.709 113.719  0.00  0.00    -0.080 Cl
ENDROOT
BRANCH   1  13
ATOM     13  N1   11 d         -12.887 206.804 116.290  0.00  0.00    -0.107 N 
ATOM     14  O3   11 d         -12.703 205.762 116.727  0.00  0.00    -0.531 OA
ATOM     15  O4   11 d         -13.965 207.387 116.587  0.00  0.00    -0.531 OA
ENDBRANCH   1  13
TORSDOF 1
ENDMDL
MODEL 9
REMARK VINA RESULT:      -6.6      3.413      4.401
REMARK  1 active torsions:
REMARK  status: ('A' for Active; 'I' for Inactive)
REMARK    1  A    between atoms: C1_1  and  N1_13 
ROOT
ATOM      1  C1   11 d          -8.758 208.833 113.838  0.00  0.00     0.200 A 
ATOM      2  C2   11 d         -10.041 208.520 114.345  0.00  0.00     0.086 A 
ATOM      3  C3   11 d         -11.018 207.967 113.485  0.00  0.00     0.022 A 
ATOM      4  C4   11 d         -10.661 207.751 112.130  0.00  0.00     0.091 A 
ATOM      5  O1   11 d          -9.453 208.060 111.702  0.00  0.00    -0.273 OA
ATOM      6  C5   11 d          -8.509 208.575 112.470  0.00  0.00     0.323 A 
ATOM      7  O2   11 d          -7.381 208.812 111.967  0.00  0.00    -0.257 OA
ATOM      8  C6   11 d         -11.592 207.206 111.232  0.00  0.00     0.038 A 
ATOM      9  C7   11 d         -12.881 206.872 111.669  0.00  0.00     0.003 A 
ATOM     10  C8   11 d         -13.245 207.083 113.006  0.00  0.00     0.001 A 
ATOM     11  C9   11 d         -12.322 207.628 113.912  0.00  0.00     0.016 A 
ATOM     12 Cl1   11 d         -10.421 208.858 116.066  0.00  0.00    -0.080 Cl
ENDROOT
BRANCH   1  13
ATOM     13  N1   11 d          -7.785 209.365 114.673  0.00  0.00    -0.107 N 
ATOM     14  O3   11 d          -7.501 210.470 114.579  0.00  0.00    -0.531 OA
ATOM     15  O4   11 d          -6.960 208.587 115.224  0.00  0.00    -0.531 OA
ENDBRANCH   1  13
TORSDOF 1
ENDMDL
MODEL 10
REMARK VINA RESULT:      -6.4      3.170      3.903
REMARK  1 active torsions:
REMARK  status: ('A' for Active; 'I' for Inactive)
REMARK    1  A    between atoms: C1_1  and  N1_13 
ROOT
ATOM      1  C1   11 d          -9.890 208.553 114.915  0.00  0.00     0.200 A 
ATOM      2  C2   11 d         -10.845 207.687 114.332  0.00  0.00     0.086 A 
ATOM      3  C3   11 d         -10.957 207.616 112.925  0.00  0.00     0.022 A 
ATOM      4  C4   11 d         -10.094 208.431 112.148  0.00  0.00     0.091 A 
ATOM      5  O1   11 d          -9.221 209.224 112.737  0.00  0.00    -0.273 OA
ATOM      6  C5   11 d          -9.079 209.321 114.046  0.00  0.00     0.323 A 
ATOM      7  O2   11 d          -8.198 210.092 114.505  0.00  0.00    -0.257 OA
ATOM      8  C6   11 d         -10.164 208.401 110.746  0.00  0.00     0.038 A 
ATOM      9  C7   11 d         -11.088 207.565 110.105  0.00  0.00     0.003 A 
ATOM     10  C8   11 d         -11.946 206.756 110.862  0.00  0.00     0.001 A 
ATOM     11  C9   11 d         -11.885 206.778 112.264  0.00  0.00     0.016 A 
ATOM     12 Cl1   11 d         -11.921 206.715 115.389  0.00  0.00    -0.080 Cl
ENDROOT
BRANCH   1  13
ATOM     13  N1   11 d          -9.759 208.626 116.295  0.00  0.00    -0.107 N 
ATOM     14  O3   11 d          -9.066 207.895 116.838  0.00  0.00    -0.531 OA
ATOM     15  O4   11 d         -10.666 209.190 116.965  0.00  0.00    -0.531 OA
ENDBRANCH   1  13
TORSDOF 1
ENDMDL
