MODEL 1
REMARK VINA RESULT:      -7.9      0.000      0.000
REMARK  2 active torsions:
REMARK  status: ('A' for Active; 'I' for Inactive)
REMARK       I    between atoms: C2_3  and  N5_12 
REMARK       I    between atoms: C3_5  and  N4_7 
REMARK    1  A    between atoms: N4_7  and  C4_8 
REMARK    2  A    between atoms: N5_12  and  C8_13 
ROOT
ATOM      1  C1   11 d         -12.737 207.053 111.439  0.00  0.00     0.259 A 
ATOM      2  N1   11 d         -11.501 207.443 111.037  0.00  0.00    -0.030 NA
ATOM      3  C2   11 d         -10.607 207.937 111.935  0.00  0.00     0.745 A 
ATOM      4  N2   11 d         -10.977 208.047 113.242  0.00  0.00     0.130 NA
ATOM      5  C3   11 d         -12.210 207.647 113.663  0.00  0.00     0.741 A 
ATOM      6  N3   11 d         -13.088 207.154 112.746  0.00  0.00    -0.030 NA
ATOM      7  N4   11 d         -12.518 207.755 115.013  0.00  0.00    -0.214 N 
ATOM      8  N5   11 d          -9.368 208.350 111.469  0.00  0.00    -0.188 N 
ATOM      9 Cl1   11 d         -13.896 206.409 110.260  0.00  0.00    -0.040 Cl
ATOM     10  H1   11 d         -11.808 208.159 115.583  0.00  0.00     0.178 HD
ATOM     11  H11  11 d          -9.251 208.381 110.481  0.00  0.00     0.184 HD
ENDROOT
BRANCH   8  12
ATOM     12  C8   11 d          -8.286 208.727 112.259  0.00  0.00     0.049 A 
ATOM     13  C9   11 d          -7.002 208.278 111.888  0.00  0.00     0.030 A 
ATOM     14  C10  11 d          -5.874 208.609 112.653  0.00  0.00     0.009 A 
ATOM     15  C11  11 d          -6.007 209.373 113.826  0.00  0.00    -0.062 A 
ATOM     16  C12  11 d          -7.282 209.845 114.191  0.00  0.00     0.009 A 
ATOM     17  C14  11 d          -4.787 209.815 114.586  0.00  0.00     0.048 C 
ATOM     18  C13  11 d          -8.413 209.505 113.432  0.00  0.00     0.030 A 
ENDBRANCH   8  12
BRANCH   7  19
ATOM     19  C4   11 d         -13.741 207.336 115.635  0.00  0.00     0.036 C 
ATOM     20  C5   11 d         -13.601 207.484 117.171  0.00  0.00     0.038 C 
ATOM     21  C6   11 d         -14.048 205.850 115.346  0.00  0.00     0.038 C 
ATOM     22  C7   11 d         -14.916 208.231 115.186  0.00  0.00     0.038 C 
ENDBRANCH   7  19
TORSDOF 2
ENDMDL
MODEL 2
REMARK VINA RESULT:      -7.9      3.435      6.112
REMARK  2 active torsions:
REMARK  status: ('A' for Active; 'I' for Inactive)
REMARK       I    between atoms: C2_3  and  N5_12 
REMARK       I    between atoms: C3_5  and  N4_7 
REMARK    1  A    between atoms: N4_7  and  C4_8 
REMARK    2  A    between atoms: N5_12  and  C8_13 
ROOT
ATOM      1  C1   11 d         -11.334 207.740 112.597  0.00  0.00     0.259 A 
ATOM      2  N1   11 d         -10.970 207.864 113.898  0.00  0.00    -0.030 NA
ATOM      3  C2   11 d         -11.819 207.487 114.892  0.00  0.00     0.745 A 
ATOM      4  N2   11 d         -13.046 206.996 114.559  0.00  0.00     0.130 NA
ATOM      5  C3   11 d         -13.420 206.854 113.257  0.00  0.00     0.741 A 
ATOM      6  N3   11 d         -12.553 207.236 112.279  0.00  0.00    -0.030 NA
ATOM      7  N4   11 d         -14.672 206.319 112.981  0.00  0.00    -0.214 N 
ATOM      8  N5   11 d         -11.412 207.662 116.205  0.00  0.00    -0.188 N 
ATOM      9 Cl1   11 d         -10.218 208.235 111.308  0.00  0.00    -0.040 Cl
ATOM     10  H1   11 d         -15.232 206.104 113.777  0.00  0.00     0.178 HD
ATOM     11  H11  11 d         -10.570 208.174 116.347  0.00  0.00     0.184 HD
ENDROOT
BRANCH   8  12
ATOM     12  C8   11 d         -12.078 207.190 117.333  0.00  0.00     0.049 A 
ATOM     13  C9   11 d         -11.432 206.225 118.133  0.00  0.00     0.030 A 
ATOM     14  C10  11 d         -12.057 205.697 119.272  0.00  0.00     0.009 A 
ATOM     15  C11  11 d         -13.358 206.100 119.622  0.00  0.00    -0.062 A 
ATOM     16  C12  11 d         -14.001 207.081 118.843  0.00  0.00     0.009 A 
ATOM     17  C14  11 d         -13.984 205.614 120.900  0.00  0.00     0.048 C 
ATOM     18  C13  11 d         -13.379 207.602 117.696  0.00  0.00     0.030 A 
ENDBRANCH   8  12
BRANCH   7  19
ATOM     19  C4   11 d         -15.206 206.051 111.676  0.00  0.00     0.036 C 
ATOM     20  C5   11 d         -16.706 205.688 111.811  0.00  0.00     0.038 C 
ATOM     21  C6   11 d         -14.502 204.849 111.008  0.00  0.00     0.038 C 
ATOM     22  C7   11 d         -15.109 207.304 110.779  0.00  0.00     0.038 C 
ENDBRANCH   7  19
TORSDOF 2
ENDMDL
MODEL 3
REMARK VINA RESULT:      -7.7      1.706      2.383
REMARK  2 active torsions:
REMARK  status: ('A' for Active; 'I' for Inactive)
REMARK       I    between atoms: C2_3  and  N5_12 
REMARK       I    between atoms: C3_5  and  N4_7 
REMARK    1  A    between atoms: N4_7  and  C4_8 
REMARK    2  A    between atoms: N5_12  and  C8_13 
ROOT
ATOM      1  C1   11 d         -10.378 208.014 111.571  0.00  0.00     0.259 A 
ATOM      2  N1   11 d          -9.083 208.400 111.692  0.00  0.00    -0.030 NA
ATOM      3  C2   11 d          -8.552 208.657 112.918  0.00  0.00     0.745 A 
ATOM      4  N2   11 d          -9.345 208.535 114.019  0.00  0.00     0.130 NA
ATOM      5  C3   11 d         -10.644 208.136 113.913  0.00  0.00     0.741 A 
ATOM      6  N3   11 d         -11.153 207.882 112.677  0.00  0.00    -0.030 NA
ATOM      7  N4   11 d         -11.393 208.000 115.075  0.00  0.00    -0.214 N 
ATOM      8  N5   11 d          -7.232 209.077 112.986  0.00  0.00    -0.188 N 
ATOM      9 Cl1   11 d         -11.062 207.680 109.967  0.00  0.00    -0.040 Cl
ATOM     10  H1   11 d         -10.922 208.243 115.919  0.00  0.00     0.178 HD
ATOM     11  H11  11 d          -6.786 209.290 112.122  0.00  0.00     0.184 HD
ENDROOT
BRANCH   8  12
ATOM     12  C8   11 d          -6.486 209.229 114.152  0.00  0.00     0.049 A 
ATOM     13  C9   11 d          -5.739 208.126 114.613  0.00  0.00     0.030 A 
ATOM     14  C10  11 d          -4.981 208.210 115.790  0.00  0.00     0.009 A 
ATOM     15  C11  11 d          -4.977 209.392 116.552  0.00  0.00    -0.062 A 
ATOM     16  C12  11 d          -5.701 210.506 116.087  0.00  0.00     0.009 A 
ATOM     17  C14  11 d          -4.083 209.516 117.754  0.00  0.00     0.048 C 
ATOM     18  C13  11 d          -6.469 210.419 114.914  0.00  0.00     0.030 A 
ENDBRANCH   8  12
BRANCH   7  19
ATOM     19  C4   11 d         -12.751 207.543 115.154  0.00  0.00     0.036 C 
ATOM     20  C5   11 d         -13.166 207.457 116.644  0.00  0.00     0.038 C 
ATOM     21  C6   11 d         -12.912 206.130 114.552  0.00  0.00     0.038 C 
ATOM     22  C7   11 d         -13.703 208.541 114.462  0.00  0.00     0.038 C 
ENDBRANCH   7  19
TORSDOF 2
ENDMDL
MODEL 4
REMARK VINA RESULT:      -7.4      2.047      3.634
REMARK  2 active torsions:
REMARK  status: ('A' for Active; 'I' for Inactive)
REMARK       I    between atoms: C2_3  and  N5_12 
REMARK       I    between atoms: C3_5  and  N4_7 
REMARK    1  A    between atoms: N4_7  and  C4_8 
REMARK    2  A    between atoms: N5_12  and  C8_13 
ROOT
ATOM      1  C1   11 d         -13.260 208.218 114.897  0.00  0.00     0.259 A 
ATOM      2  N1   11 d         -11.978 208.519 115.221  0.00  0.00    -0.030 NA
ATOM      3  C2   11 d         -10.965 208.247 114.353  0.00  0.00     0.745 A 
ATOM      4  N2   11 d         -11.259 207.655 113.161  0.00  0.00     0.130 NA
ATOM      5  C3   11 d         -12.544 207.359 112.818  0.00  0.00     0.741 A 
ATOM      6  N3   11 d         -13.541 207.642 113.701  0.00  0.00    -0.030 NA
ATOM      7  N4   11 d         -12.783 206.784 111.576  0.00  0.00    -0.214 N 
ATOM      8  N5   11 d          -9.669 208.547 114.743  0.00  0.00    -0.188 N 
ATOM      9 Cl1   11 d         -14.575 208.577 116.035  0.00  0.00    -0.040 Cl
ATOM     10  H1   11 d         -11.972 206.595 111.028  0.00  0.00     0.178 HD
ATOM     11  H11  11 d          -9.541 208.826 115.690  0.00  0.00     0.184 HD
ENDROOT
BRANCH   8  12
ATOM     12  C8   11 d          -8.540 208.486 113.930  0.00  0.00     0.049 A 
ATOM     13  C9   11 d          -7.275 208.455 114.550  0.00  0.00     0.030 A 
ATOM     14  C10  11 d          -6.099 208.411 113.786  0.00  0.00     0.009 A 
ATOM     15  C11  11 d          -6.161 208.427 112.381  0.00  0.00    -0.062 A 
ATOM     16  C12  11 d          -7.422 208.433 111.754  0.00  0.00     0.009 A 
ATOM     17  C14  11 d          -4.908 208.273 111.565  0.00  0.00     0.048 C 
ATOM     18  C13  11 d          -8.599 208.488 112.518  0.00  0.00     0.030 A 
ENDBRANCH   8  12
BRANCH   7  19
ATOM     19  C4   11 d         -14.070 206.456 111.032  0.00  0.00     0.036 C 
ATOM     20  C5   11 d         -14.100 206.855 109.535  0.00  0.00     0.038 C 
ATOM     21  C6   11 d         -15.202 207.237 111.736  0.00  0.00     0.038 C 
ATOM     22  C7   11 d         -14.326 204.937 111.115  0.00  0.00     0.038 C 
ENDBRANCH   7  19
TORSDOF 2
ENDMDL
MODEL 5
REMARK VINA RESULT:      -7.4      3.092      7.089
REMARK  2 active torsions:
REMARK  status: ('A' for Active; 'I' for Inactive)
REMARK       I    between atoms: C2_3  and  N5_12 
REMARK       I    between atoms: C3_5  and  N4_7 
REMARK    1  A    between atoms: N4_7  and  C4_8 
REMARK    2  A    between atoms: N5_12  and  C8_13 
ROOT
ATOM      1  C1   11 d          -9.693 208.285 117.455  0.00  0.00     0.259 A 
ATOM      2  N1   11 d         -10.935 207.976 117.004  0.00  0.00    -0.030 NA
ATOM      3  C2   11 d         -11.189 207.918 115.668  0.00  0.00     0.745 A 
ATOM      4  N2   11 d         -10.180 208.189 114.793  0.00  0.00     0.130 NA
ATOM      5  C3   11 d          -8.926 208.487 115.232  0.00  0.00     0.741 A 
ATOM      6  N3   11 d          -8.694 208.538 116.572  0.00  0.00    -0.030 NA
ATOM      7  N4   11 d          -7.932 208.724 114.290  0.00  0.00    -0.214 N 
ATOM      8  N5   11 d         -12.481 207.628 115.258  0.00  0.00    -0.188 N 
ATOM      9 Cl1   11 d          -9.372 208.357 119.199  0.00  0.00    -0.040 Cl
ATOM     10  H1   11 d          -8.226 208.690 113.339  0.00  0.00     0.178 HD
ATOM     11  H11  11 d         -13.180 207.605 115.967  0.00  0.00     0.184 HD
ENDROOT
BRANCH   8  12
ATOM     12  C8   11 d         -12.881 207.373 113.949  0.00  0.00     0.049 A 
ATOM     13  C9   11 d         -14.163 207.802 113.549  0.00  0.00     0.030 A 
ATOM     14  C10  11 d         -14.631 207.561 112.249  0.00  0.00     0.009 A 
ATOM     15  C11  11 d         -13.839 206.855 111.326  0.00  0.00    -0.062 A 
ATOM     16  C12  11 d         -12.548 206.444 111.709  0.00  0.00     0.009 A 
ATOM     17  C14  11 d         -14.297 206.689 109.904  0.00  0.00     0.048 C 
ATOM     18  C13  11 d         -12.083 206.677 113.014  0.00  0.00     0.030 A 
ENDBRANCH   8  12
BRANCH   7  19
ATOM     19  C4   11 d          -6.552 208.999 114.571  0.00  0.00     0.036 C 
ATOM     20  C5   11 d          -5.749 208.950 113.247  0.00  0.00     0.038 C 
ATOM     21  C6   11 d          -5.941 207.940 115.516  0.00  0.00     0.038 C 
ATOM     22  C7   11 d          -6.388 210.415 115.164  0.00  0.00     0.038 C 
ENDBRANCH   7  19
TORSDOF 2
ENDMDL
MODEL 6
REMARK VINA RESULT:      -7.4      1.435      1.977
REMARK  2 active torsions:
REMARK  status: ('A' for Active; 'I' for Inactive)
REMARK       I    between atoms: C2_3  and  N5_12 
REMARK       I    between atoms: C3_5  and  N4_7 
REMARK    1  A    between atoms: N4_7  and  C4_8 
REMARK    2  A    between atoms: N5_12  and  C8_13 
ROOT
ATOM      1  C1   11 d         -13.028 206.368 113.123  0.00  0.00     0.259 A 
ATOM      2  N1   11 d         -12.041 206.976 112.420  0.00  0.00    -0.030 NA
ATOM      3  C2   11 d         -10.966 207.510 113.062  0.00  0.00     0.745 A 
ATOM      4  N2   11 d         -10.905 207.435 114.421  0.00  0.00     0.130 NA
ATOM      5  C3   11 d         -11.883 206.815 115.138  0.00  0.00     0.741 A 
ATOM      6  N3   11 d         -12.948 206.287 114.475  0.00  0.00    -0.030 NA
ATOM      7  N4   11 d         -11.750 206.743 116.519  0.00  0.00    -0.214 N 
ATOM      8  N5   11 d          -9.998 208.147 112.301  0.00  0.00    -0.188 N 
ATOM      9 Cl1   11 d         -14.426 205.674 112.277  0.00  0.00    -0.040 Cl
ATOM     10  H1   11 d         -10.944 207.192 116.896  0.00  0.00     0.178 HD
ATOM     11  H11  11 d         -10.209 208.291 111.339  0.00  0.00     0.184 HD
ENDROOT
BRANCH   8  12
ATOM     12  C8   11 d          -8.768 208.604 112.767  0.00  0.00     0.049 A 
ATOM     13  C9   11 d          -8.755 209.452 113.893  0.00  0.00     0.030 A 
ATOM     14  C10  11 d          -7.550 209.960 114.400  0.00  0.00     0.009 A 
ATOM     15  C11  11 d          -6.329 209.655 113.773  0.00  0.00    -0.062 A 
ATOM     16  C12  11 d          -6.330 208.790 112.662  0.00  0.00     0.009 A 
ATOM     17  C14  11 d          -5.031 210.113 114.378  0.00  0.00     0.048 C 
ATOM     18  C13  11 d          -7.537 208.291 112.148  0.00  0.00     0.030 A 
ENDBRANCH   8  12
BRANCH   7  19
ATOM     19  C4   11 d         -12.652 206.087 117.421  0.00  0.00     0.036 C 
ATOM     20  C5   11 d         -12.005 206.028 118.827  0.00  0.00     0.038 C 
ATOM     21  C6   11 d         -12.933 204.631 116.986  0.00  0.00     0.038 C 
ATOM     22  C7   11 d         -13.970 206.880 117.547  0.00  0.00     0.038 C 
ENDBRANCH   7  19
TORSDOF 2
ENDMDL
MODEL 7
REMARK VINA RESULT:      -7.3      3.610      7.822
REMARK  2 active torsions:
REMARK  status: ('A' for Active; 'I' for Inactive)
REMARK       I    between atoms: C2_3  and  N5_12 
REMARK       I    between atoms: C3_5  and  N4_7 
REMARK    1  A    between atoms: N4_7  and  C4_8 
REMARK    2  A    between atoms: N5_12  and  C8_13 
ROOT
ATOM      1  C1   11 d          -6.014 209.645 115.614  0.00  0.00     0.259 A 
ATOM      2  N1   11 d          -7.366 209.528 115.635  0.00  0.00    -0.030 NA
ATOM      3  C2   11 d          -8.034 209.045 114.552  0.00  0.00     0.745 A 
ATOM      4  N2   11 d          -7.324 208.695 113.442  0.00  0.00     0.130 NA
ATOM      5  C3   11 d          -5.966 208.795 113.412  0.00  0.00     0.741 A 
ATOM      6  N3   11 d          -5.319 209.279 114.508  0.00  0.00    -0.030 NA
ATOM      7  N4   11 d          -5.297 208.394 112.263  0.00  0.00    -0.214 N 
ATOM      8  N5   11 d          -9.417 208.973 114.613  0.00  0.00    -0.188 N 
ATOM      9 Cl1   11 d          -5.152 210.275 117.032  0.00  0.00    -0.040 Cl
ATOM     10  H1   11 d          -5.877 208.086 111.514  0.00  0.00     0.178 HD
ATOM     11  H11  11 d          -9.852 209.400 115.400  0.00  0.00     0.184 HD
ENDROOT
BRANCH   8  12
ATOM     12  C8   11 d         -10.241 208.363 113.671  0.00  0.00     0.049 A 
ATOM     13  C9   11 d         -11.361 207.643 114.133  0.00  0.00     0.030 A 
ATOM     14  C10  11 d         -12.221 206.992 113.236  0.00  0.00     0.009 A 
ATOM     15  C11  11 d         -11.962 207.020 111.854  0.00  0.00    -0.062 A 
ATOM     16  C12  11 d         -10.859 207.757 111.382  0.00  0.00     0.009 A 
ATOM     17  C14  11 d         -12.940 206.413 110.887  0.00  0.00     0.048 C 
ATOM     18  C13  11 d          -9.993 208.400 112.281  0.00  0.00     0.030 A 
ENDBRANCH   8  12
BRANCH   7  19
ATOM     19  C4   11 d          -3.874 208.382 112.076  0.00  0.00     0.036 C 
ATOM     20  C5   11 d          -3.563 208.025 110.601  0.00  0.00     0.038 C 
ATOM     21  C6   11 d          -3.193 207.311 112.958  0.00  0.00     0.038 C 
ATOM     22  C7   11 d          -3.275 209.777 112.355  0.00  0.00     0.038 C 
ENDBRANCH   7  19
TORSDOF 2
ENDMDL
MODEL 8
REMARK VINA RESULT:      -7.0      3.247      6.352
REMARK  2 active torsions:
REMARK  status: ('A' for Active; 'I' for Inactive)
REMARK       I    between atoms: C2_3  and  N5_12 
REMARK       I    between atoms: C3_5  and  N4_7 
REMARK    1  A    between atoms: N4_7  and  C4_8 
REMARK    2  A    between atoms: N5_12  and  C8_13 
ROOT
ATOM      1  C1   11 d          -8.757 208.966 114.297  0.00  0.00     0.259 A 
ATOM      2  N1   11 d          -9.529 208.743 113.204  0.00  0.00    -0.030 NA
ATOM      3  C2   11 d         -10.673 208.013 113.305  0.00  0.00     0.745 A 
ATOM      4  N2   11 d         -11.022 207.498 114.518  0.00  0.00     0.130 NA
ATOM      5  C3   11 d         -10.262 207.725 115.626  0.00  0.00     0.741 A 
ATOM      6  N3   11 d          -9.123 208.460 115.502  0.00  0.00    -0.030 NA
ATOM      7  N4   11 d         -10.686 207.200 116.840  0.00  0.00    -0.214 N 
ATOM      8  N5   11 d         -11.411 207.788 112.154  0.00  0.00    -0.188 N 
ATOM      9 Cl1   11 d          -7.267 209.921 114.155  0.00  0.00    -0.040 Cl
ATOM     10  H1   11 d         -11.518 206.653 116.803  0.00  0.00     0.178 HD
ATOM     11  H11  11 d         -10.994 208.066 111.294  0.00  0.00     0.184 HD
ENDROOT
BRANCH   8  12
ATOM     12  C8   11 d         -12.675 207.206 112.099  0.00  0.00     0.049 A 
ATOM     13  C9   11 d         -13.701 207.766 112.886  0.00  0.00     0.030 A 
ATOM     14  C10  11 d         -14.991 207.216 112.888  0.00  0.00     0.009 A 
ATOM     15  C11  11 d         -15.278 206.070 112.124  0.00  0.00    -0.062 A 
ATOM     16  C12  11 d         -14.265 205.518 111.316  0.00  0.00     0.009 A 
ATOM     17  C14  11 d         -16.684 205.544 112.044  0.00  0.00     0.048 C 
ATOM     18  C13  11 d         -12.971 206.063 111.323  0.00  0.00     0.030 A 
ENDBRANCH   8  12
BRANCH   7  19
ATOM     19  C4   11 d         -10.042 207.383 118.109  0.00  0.00     0.036 C 
ATOM     20  C5   11 d         -10.634 206.373 119.124  0.00  0.00     0.038 C 
ATOM     21  C6   11 d         -10.291 208.799 118.675  0.00  0.00     0.038 C 
ATOM     22  C7   11 d          -8.529 207.100 117.999  0.00  0.00     0.038 C 
ENDBRANCH   7  19
TORSDOF 2
ENDMDL
MODEL 9
REMARK VINA RESULT:      -7.0      2.385      3.186
REMARK  2 active torsions:
REMARK  status: ('A' for Active; 'I' for Inactive)
REMARK       I    between atoms: C2_3  and  N5_12 
REMARK       I    between atoms: C3_5  and  N4_7 
REMARK    1  A    between atoms: N4_7  and  C4_8 
REMARK    2  A    between atoms: N5_12  and  C8_13 
ROOT
ATOM      1  C1   11 d         -10.114 208.196 112.258  0.00  0.00     0.259 A 
ATOM      2  N1   11 d          -8.849 208.542 112.605  0.00  0.00    -0.030 NA
ATOM      3  C2   11 d          -8.531 208.781 113.907  0.00  0.00     0.745 A 
ATOM      4  N2   11 d          -9.507 208.681 114.853  0.00  0.00     0.130 NA
ATOM      5  C3   11 d         -10.778 208.321 114.520  0.00  0.00     0.741 A 
ATOM      6  N3   11 d         -11.072 208.085 113.212  0.00  0.00    -0.030 NA
ATOM      7  N4   11 d         -11.722 208.206 115.533  0.00  0.00    -0.214 N 
ATOM      8  N5   11 d          -7.232 209.161 114.206  0.00  0.00    -0.188 N 
ATOM      9 Cl1   11 d         -10.517 207.885 110.558  0.00  0.00    -0.040 Cl
ATOM     10  H1   11 d         -11.399 208.434 116.448  0.00  0.00     0.178 HD
ATOM     11  H11  11 d          -6.637 209.363 113.434  0.00  0.00     0.184 HD
ENDROOT
BRANCH   8  12
ATOM     12  C8   11 d          -6.696 209.289 115.485  0.00  0.00     0.049 A 
ATOM     13  C9   11 d          -6.044 210.494 115.816  0.00  0.00     0.030 A 
ATOM     14  C10  11 d          -5.468 210.678 117.082  0.00  0.00     0.009 A 
ATOM     15  C11  11 d          -5.504 209.646 118.037  0.00  0.00    -0.062 A 
ATOM     16  C12  11 d          -6.174 208.448 117.723  0.00  0.00     0.009 A 
ATOM     17  C14  11 d          -4.981 209.882 119.427  0.00  0.00     0.048 C 
ATOM     18  C13  11 d          -6.741 208.260 116.452  0.00  0.00     0.030 A 
ENDBRANCH   8  12
BRANCH   7  19
ATOM     19  C4   11 d         -13.086 207.790 115.372  0.00  0.00     0.036 C 
ATOM     20  C5   11 d         -13.705 207.543 116.771  0.00  0.00     0.038 C 
ATOM     21  C6   11 d         -13.188 206.463 114.587  0.00  0.00     0.038 C 
ATOM     22  C7   11 d         -13.915 208.894 114.683  0.00  0.00     0.038 C 
ENDBRANCH   7  19
TORSDOF 2
ENDMDL
MODEL 10
REMARK VINA RESULT:      -6.8      5.556      7.915
REMARK  2 active torsions:
REMARK  status: ('A' for Active; 'I' for Inactive)
REMARK       I    between atoms: C2_3  and  N5_12 
REMARK       I    between atoms: C3_5  and  N4_7 
REMARK    1  A    between atoms: N4_7  and  C4_8 
REMARK    2  A    between atoms: N5_12  and  C8_13 
ROOT
ATOM      1  C1   11 d          -4.807 209.657 118.063  0.00  0.00     0.259 A 
ATOM      2  N1   11 d          -5.582 210.235 117.110  0.00  0.00    -0.030 NA
ATOM      3  C2   11 d          -6.289 209.467 116.238  0.00  0.00     0.745 A 
ATOM      4  N2   11 d          -6.196 208.110 116.328  0.00  0.00     0.130 NA
ATOM      5  C3   11 d          -5.432 207.517 117.287  0.00  0.00     0.741 A 
ATOM      6  N3   11 d          -4.735 208.305 118.151  0.00  0.00    -0.030 NA
ATOM      7  N4   11 d          -5.402 206.130 117.347  0.00  0.00    -0.214 N 
ATOM      8  N5   11 d          -7.043 210.104 115.264  0.00  0.00    -0.188 N 
ATOM      9 Cl1   11 d          -3.888 210.668 119.197  0.00  0.00    -0.040 Cl
ATOM     10  H1   11 d          -5.928 205.658 116.645  0.00  0.00     0.178 HD
ATOM     11  H11  11 d          -6.920 211.089 115.178  0.00  0.00     0.184 HD
ENDROOT
BRANCH   8  12
ATOM     12  C8   11 d          -7.944 209.489 114.400  0.00  0.00     0.049 A 
ATOM     13  C9   11 d          -9.192 209.086 114.916  0.00  0.00     0.030 A 
ATOM     14  C10  11 d         -10.137 208.445 114.102  0.00  0.00     0.009 A 
ATOM     15  C11  11 d          -9.842 208.164 112.756  0.00  0.00    -0.062 A 
ATOM     16  C12  11 d          -8.608 208.584 112.225  0.00  0.00     0.009 A 
ATOM     17  C14  11 d         -10.893 207.573 111.857  0.00  0.00     0.048 C 
ATOM     18  C13  11 d          -7.658 209.216 113.044  0.00  0.00     0.030 A 
ENDBRANCH   8  12
BRANCH   7  19
ATOM     19  C4   11 d          -4.698 205.343 118.319  0.00  0.00     0.036 C 
ATOM     20  C5   11 d          -4.873 203.842 117.974  0.00  0.00     0.038 C 
ATOM     21  C6   11 d          -5.263 205.554 119.741  0.00  0.00     0.038 C 
ATOM     22  C7   11 d          -3.187 205.656 118.283  0.00  0.00     0.038 C 
ENDBRANCH   7  19
TORSDOF 2
ENDMDL
