MODEL 1
REMARK VINA RESULT:      -7.6      0.000      0.000
REMARK  2 active torsions:
REMARK  status: ('A' for Active; 'I' for Inactive)
REMARK    1  A    between atoms: C6_8  and  O2_9 
REMARK    2  A    between atoms: C10_13  and  C11_14 
ROOT
ATOM      1  C1   11 d         -12.550 207.564 113.254  0.00  0.00     0.047 A 
ATOM      2  C2   11 d         -13.217 207.943 114.532  0.00  0.00     0.257 A 
ATOM      3  O1   11 d         -14.445 207.760 114.837  0.00  0.00    -0.267 OA
ATOM      4  N1   11 d         -12.303 208.552 115.406  0.00  0.00    -0.322 N 
ATOM      5  C3   11 d         -11.034 208.574 114.718  0.00  0.00     0.046 A 
ATOM      6  C4   11 d         -11.145 207.987 113.461  0.00  0.00     0.009 A 
ATOM      7  C5   11 d         -10.021 207.898 112.620  0.00  0.00     0.051 A 
ATOM      8  C6   11 d          -8.786 208.401 113.073  0.00  0.00     0.069 A 
ATOM      9  C8   11 d          -8.696 209.025 114.337  0.00  0.00     0.039 A 
ATOM     10  C9   11 d          -9.821 209.098 115.179  0.00  0.00     0.033 A 
ATOM     11  C10  11 d         -13.028 206.989 112.122  0.00  0.00     0.051 C 
ATOM     12  H1   11 d         -12.495 208.931 116.393  0.00  0.00     0.169 HD
ENDROOT
BRANCH  11  13
ATOM     13  C11  11 d         -14.433 206.599 111.841  0.00  0.00     0.074 A 
ATOM     14  C12  11 d         -15.310 207.311 111.035  0.00  0.00     0.120 A 
ATOM     15  N2   11 d         -16.489 206.657 111.041  0.00  0.00    -0.358 N 
ATOM     16  C13  11 d         -16.362 205.567 111.825  0.00  0.00     0.207 A 
ATOM     17  H10  11 d         -17.361 206.944 110.526  0.00  0.00     0.166 HD
ATOM     18  N3   11 d         -15.109 205.532 112.315  0.00  0.00    -0.243 NA
ENDBRANCH  11  13
BRANCH   8  19
ATOM     19  O2   11 d          -7.674 208.399 112.192  0.00  0.00    -0.356 OA
ATOM     20  C7   11 d          -6.450 208.638 112.933  0.00  0.00     0.210 C 
ENDBRANCH   8  19
TORSDOF 2
ENDMDL
MODEL 2
REMARK VINA RESULT:      -7.6      2.550      6.521
REMARK  2 active torsions:
REMARK  status: ('A' for Active; 'I' for Inactive)
REMARK    1  A    between atoms: C6_8  and  O2_9 
REMARK    2  A    between atoms: C10_13  and  C11_14 
ROOT
ATOM      1  C1   11 d         -12.309 207.441 113.351  0.00  0.00     0.047 A 
ATOM      2  C2   11 d         -11.100 207.387 112.482  0.00  0.00     0.257 A 
ATOM      3  O1   11 d          -9.883 207.496 112.858  0.00  0.00    -0.267 OA
ATOM      4  N1   11 d         -11.464 207.194 111.140  0.00  0.00    -0.322 N 
ATOM      5  C3   11 d         -12.905 207.114 111.115  0.00  0.00     0.046 A 
ATOM      6  C4   11 d         -13.427 207.238 112.400  0.00  0.00     0.009 A 
ATOM      7  C5   11 d         -14.817 207.183 112.607  0.00  0.00     0.051 A 
ATOM      8  C6   11 d         -15.667 206.991 111.500  0.00  0.00     0.069 A 
ATOM      9  C8   11 d         -15.125 206.900 110.199  0.00  0.00     0.039 A 
ATOM     10  C9   11 d         -13.733 206.941 110.000  0.00  0.00     0.033 A 
ATOM     11  C10  11 d         -12.454 207.639 114.686  0.00  0.00     0.051 C 
ATOM     12  H1   11 d         -10.810 207.118 110.290  0.00  0.00     0.169 HD
ENDROOT
BRANCH  11  13
ATOM     13  C11  11 d         -11.376 207.901 115.673  0.00  0.00     0.074 A 
ATOM     14  C12  11 d         -10.615 209.061 115.729  0.00  0.00     0.120 A 
ATOM     15  N2   11 d          -9.732 208.919 116.739  0.00  0.00    -0.358 N 
ATOM     16  C13  11 d          -9.929 207.709 117.303  0.00  0.00     0.207 A 
ATOM     17  H10  11 d          -9.012 209.625 117.038  0.00  0.00     0.166 HD
ATOM     18  N3   11 d         -10.930 207.087 116.652  0.00  0.00    -0.243 NA
ENDBRANCH  11  13
BRANCH   8  19
ATOM     19  O2   11 d         -17.072 207.029 111.693  0.00  0.00    -0.356 OA
ATOM     20  C7   11 d         -17.534 205.769 112.243  0.00  0.00     0.210 C 
ENDBRANCH   8  19
TORSDOF 2
ENDMDL
MODEL 3
REMARK VINA RESULT:      -7.5      2.559      6.656
REMARK  2 active torsions:
REMARK  status: ('A' for Active; 'I' for Inactive)
REMARK    1  A    between atoms: C6_8  and  O2_9 
REMARK    2  A    between atoms: C10_13  and  C11_14 
ROOT
ATOM      1  C1   11 d         -11.738 207.403 111.803  0.00  0.00     0.047 A 
ATOM      2  C2   11 d         -11.569 207.612 110.337  0.00  0.00     0.257 A 
ATOM      3  O1   11 d         -10.536 208.079 109.746  0.00  0.00    -0.267 OA
ATOM      4  N1   11 d         -12.725 207.220 109.645  0.00  0.00    -0.322 N 
ATOM      5  C3   11 d         -13.657 206.748 110.641  0.00  0.00     0.046 A 
ATOM      6  C4   11 d         -13.099 206.828 111.914  0.00  0.00     0.009 A 
ATOM      7  C5   11 d         -13.837 206.412 113.037  0.00  0.00     0.051 A 
ATOM      8  C6   11 d         -15.139 205.907 112.852  0.00  0.00     0.069 A 
ATOM      9  C8   11 d         -15.704 205.863 111.559  0.00  0.00     0.039 A 
ATOM     10  C9   11 d         -14.955 206.267 110.438  0.00  0.00     0.033 A 
ATOM     11  C10  11 d         -10.917 207.660 112.852  0.00  0.00     0.051 C 
ATOM     12  H1   11 d         -12.897 207.259 108.585  0.00  0.00     0.169 HD
ENDROOT
BRANCH  11  13
ATOM     13  C11  11 d          -9.571 208.285 112.803  0.00  0.00     0.074 A 
ATOM     14  C12  11 d          -9.135 209.299 113.644  0.00  0.00     0.120 A 
ATOM     15  N2   11 d          -7.875 209.614 113.281  0.00  0.00    -0.358 N 
ATOM     16  C13  11 d          -7.526 208.825 112.244  0.00  0.00     0.207 A 
ATOM     17  H10  11 d          -7.266 210.349 113.724  0.00  0.00     0.166 HD
ATOM     18  N3   11 d          -8.561 208.015 111.951  0.00  0.00    -0.243 NA
ENDBRANCH  11  13
BRANCH   8  19
ATOM     19  O2   11 d         -15.919 205.575 113.990  0.00  0.00    -0.356 OA
ATOM     20  C7   11 d         -15.083 205.541 115.174  0.00  0.00     0.210 C 
ENDBRANCH   8  19
TORSDOF 2
ENDMDL
MODEL 4
REMARK VINA RESULT:      -7.4      2.403      4.048
REMARK  2 active torsions:
REMARK  status: ('A' for Active; 'I' for Inactive)
REMARK    1  A    between atoms: C6_8  and  O2_9 
REMARK    2  A    between atoms: C10_13  and  C11_14 
ROOT
ATOM      1  C1   11 d         -12.487 206.693 113.964  0.00  0.00     0.047 A 
ATOM      2  C2   11 d         -13.545 206.004 113.173  0.00  0.00     0.257 A 
ATOM      3  O1   11 d         -14.551 205.365 113.636  0.00  0.00    -0.267 OA
ATOM      4  N1   11 d         -13.302 206.140 111.797  0.00  0.00    -0.322 N 
ATOM      5  C3   11 d         -12.094 206.920 111.672  0.00  0.00     0.046 A 
ATOM      6  C4   11 d         -11.602 207.273 112.926  0.00  0.00     0.009 A 
ATOM      7  C5   11 d         -10.430 208.042 113.036  0.00  0.00     0.051 A 
ATOM      8  C6   11 d          -9.770 208.455 111.862  0.00  0.00     0.069 A 
ATOM      9  C8   11 d         -10.261 208.062 110.598  0.00  0.00     0.039 A 
ATOM     10  C9   11 d         -11.443 207.305 110.494  0.00  0.00     0.033 A 
ATOM     11  C10  11 d         -12.287 206.804 115.302  0.00  0.00     0.051 C 
ATOM     12  H1   11 d         -13.890 205.748 110.988  0.00  0.00     0.169 HD
ENDROOT
BRANCH  11  13
ATOM     13  C11  11 d         -13.107 206.199 116.382  0.00  0.00     0.074 A 
ATOM     14  C12  11 d         -13.974 206.899 117.209  0.00  0.00     0.120 A 
ATOM     15  N2   11 d         -14.516 206.015 118.071  0.00  0.00    -0.358 N 
ATOM     16  C13  11 d         -14.010 204.795 117.797  0.00  0.00     0.207 A 
ATOM     17  H10  11 d         -15.214 206.233 118.828  0.00  0.00     0.166 HD
ATOM     18  N3   11 d         -13.149 204.907 116.768  0.00  0.00    -0.243 NA
ENDBRANCH  11  13
BRANCH   8  19
ATOM     19  O2   11 d          -8.537 209.150 111.970  0.00  0.00    -0.356 OA
ATOM     20  C7   11 d          -8.340 209.603 113.334  0.00  0.00     0.210 C 
ENDBRANCH   8  19
TORSDOF 2
ENDMDL
MODEL 5
REMARK VINA RESULT:      -7.4      2.326      2.961
REMARK  2 active torsions:
REMARK  status: ('A' for Active; 'I' for Inactive)
REMARK    1  A    between atoms: C6_8  and  O2_9 
REMARK    2  A    between atoms: C10_13  and  C11_14 
ROOT
ATOM      1  C1   11 d         -11.524 207.643 112.103  0.00  0.00     0.047 A 
ATOM      2  C2   11 d         -11.160 207.740 110.661  0.00  0.00     0.257 A 
ATOM      3  O1   11 d         -11.896 207.426 109.664  0.00  0.00    -0.267 OA
ATOM      4  N1   11 d          -9.856 208.238 110.513  0.00  0.00    -0.322 N 
ATOM      5  C3   11 d          -9.357 208.477 111.846  0.00  0.00     0.046 A 
ATOM      6  C4   11 d         -10.319 208.153 112.798  0.00  0.00     0.009 A 
ATOM      7  C5   11 d         -10.042 208.316 114.167  0.00  0.00     0.051 A 
ATOM      8  C6   11 d          -8.785 208.819 114.556  0.00  0.00     0.069 A 
ATOM      9  C8   11 d          -7.806 209.111 113.581  0.00  0.00     0.039 A 
ATOM     10  C9   11 d          -8.095 208.961 112.212  0.00  0.00     0.033 A 
ATOM     11  C10  11 d         -12.646 207.197 112.723  0.00  0.00     0.051 C 
ATOM     12  H1   11 d          -9.323 208.413 109.596  0.00  0.00     0.169 HD
ENDROOT
BRANCH  11  13
ATOM     13  C11  11 d         -13.856 206.625 112.080  0.00  0.00     0.074 A 
ATOM     14  C12  11 d         -14.192 205.278 112.076  0.00  0.00     0.120 A 
ATOM     15  N2   11 d         -15.340 205.149 111.380  0.00  0.00    -0.358 N 
ATOM     16  C13  11 d         -15.718 206.373 110.959  0.00  0.00     0.207 A 
ATOM     17  H10  11 d         -15.856 204.251 111.194  0.00  0.00     0.166 HD
ATOM     18  N3   11 d         -14.812 207.274 111.384  0.00  0.00    -0.243 NA
ENDBRANCH  11  13
BRANCH   8  19
ATOM     19  O2   11 d          -8.469 208.894 115.938  0.00  0.00    -0.356 OA
ATOM     20  C7   11 d          -7.035 208.787 116.127  0.00  0.00     0.210 C 
ENDBRANCH   8  19
TORSDOF 2
ENDMDL
MODEL 6
REMARK VINA RESULT:      -7.3      3.368      5.562
REMARK  2 active torsions:
REMARK  status: ('A' for Active; 'I' for Inactive)
REMARK    1  A    between atoms: C6_8  and  O2_9 
REMARK    2  A    between atoms: C10_13  and  C11_14 
ROOT
ATOM      1  C1   11 d         -12.857 206.135 114.943  0.00  0.00     0.047 A 
ATOM      2  C2   11 d         -11.510 206.588 115.389  0.00  0.00     0.257 A 
ATOM      3  O1   11 d         -11.062 206.589 116.587  0.00  0.00    -0.267 OA
ATOM      4  N1   11 d         -10.751 207.036 114.296  0.00  0.00    -0.322 N 
ATOM      5  C3   11 d         -11.585 206.877 113.129  0.00  0.00     0.046 A 
ATOM      6  C4   11 d         -12.819 206.335 113.475  0.00  0.00     0.009 A 
ATOM      7  C5   11 d         -13.787 206.090 112.484  0.00  0.00     0.051 A 
ATOM      8  C6   11 d         -13.485 206.393 111.142  0.00  0.00     0.069 A 
ATOM      9  C8   11 d         -12.241 206.974 110.810  0.00  0.00     0.039 A 
ATOM     10  C9   11 d         -11.271 207.202 111.804  0.00  0.00     0.033 A 
ATOM     11  C10  11 d         -13.924 205.658 115.632  0.00  0.00     0.051 C 
ATOM     12  H1   11 d          -9.749 207.423 114.311  0.00  0.00     0.169 HD
ENDROOT
BRANCH  11  13
ATOM     13  C11  11 d         -14.036 205.491 117.104  0.00  0.00     0.074 A 
ATOM     14  C12  11 d         -14.265 204.284 117.751  0.00  0.00     0.120 A 
ATOM     15  N2   11 d         -14.323 204.538 119.074  0.00  0.00    -0.358 N 
ATOM     16  C13  11 d         -14.137 205.862 119.257  0.00  0.00     0.207 A 
ATOM     17  H10  11 d         -14.486 203.831 119.836  0.00  0.00     0.166 HD
ATOM     18  N3   11 d         -13.963 206.444 118.056  0.00  0.00    -0.243 NA
ENDBRANCH  11  13
BRANCH   8  19
ATOM     19  O2   11 d         -14.492 206.236 110.155  0.00  0.00    -0.356 OA
ATOM     20  C7   11 d         -15.775 206.663 110.680  0.00  0.00     0.210 C 
ENDBRANCH   8  19
TORSDOF 2
ENDMDL
MODEL 7
REMARK VINA RESULT:      -7.2      2.886      5.342
REMARK  2 active torsions:
REMARK  status: ('A' for Active; 'I' for Inactive)
REMARK    1  A    between atoms: C6_8  and  O2_9 
REMARK    2  A    between atoms: C10_13  and  C11_14 
ROOT
ATOM      1  C1   11 d         -13.686 206.320 113.925  0.00  0.00     0.047 A 
ATOM      2  C2   11 d         -15.105 205.944 114.182  0.00  0.00     0.257 A 
ATOM      3  O1   11 d         -15.623 205.639 115.310  0.00  0.00    -0.267 OA
ATOM      4  N1   11 d         -15.846 205.964 112.989  0.00  0.00    -0.322 N 
ATOM      5  C3   11 d         -14.928 206.356 111.946  0.00  0.00     0.046 A 
ATOM      6  C4   11 d         -13.659 206.588 112.468  0.00  0.00     0.009 A 
ATOM      7  C5   11 d         -12.609 206.987 111.622  0.00  0.00     0.051 A 
ATOM      8  C6   11 d         -12.863 207.157 110.247  0.00  0.00     0.069 A 
ATOM      9  C8   11 d         -14.148 206.885 109.726  0.00  0.00     0.039 A 
ATOM     10  C9   11 d         -15.198 206.501 110.580  0.00  0.00     0.033 A 
ATOM     11  C10  11 d         -12.612 206.408 114.750  0.00  0.00     0.051 C 
ATOM     12  H1   11 d         -16.888 205.736 112.864  0.00  0.00     0.169 HD
ENDROOT
BRANCH  11  13
ATOM     13  C11  11 d         -12.571 206.099 116.202  0.00  0.00     0.074 A 
ATOM     14  C12  11 d         -12.247 204.862 116.741  0.00  0.00     0.120 A 
ATOM     15  N2   11 d         -12.339 204.967 118.082  0.00  0.00    -0.358 N 
ATOM     16  C13  11 d         -12.708 206.230 118.381  0.00  0.00     0.207 A 
ATOM     17  H10  11 d         -12.157 204.201 118.780  0.00  0.00     0.166 HD
ATOM     18  N3   11 d         -12.852 206.920 117.234  0.00  0.00    -0.243 NA
ENDBRANCH  11  13
BRANCH   8  19
ATOM     19  O2   11 d         -11.786 207.467 109.378  0.00  0.00    -0.356 OA
ATOM     20  C7   11 d         -10.674 208.008 110.136  0.00  0.00     0.210 C 
ENDBRANCH   8  19
TORSDOF 2
ENDMDL
MODEL 8
REMARK VINA RESULT:      -7.2      2.548      6.228
REMARK  2 active torsions:
REMARK  status: ('A' for Active; 'I' for Inactive)
REMARK    1  A    between atoms: C6_8  and  O2_9 
REMARK    2  A    between atoms: C10_13  and  C11_14 
ROOT
ATOM      1  C1   11 d         -11.101 207.618 113.692  0.00  0.00     0.047 A 
ATOM      2  C2   11 d         -11.216 207.412 115.164  0.00  0.00     0.257 A 
ATOM      3  O1   11 d         -10.389 207.804 116.057  0.00  0.00    -0.267 OA
ATOM      4  N1   11 d         -12.389 206.706 115.475  0.00  0.00    -0.322 N 
ATOM      5  C3   11 d         -13.054 206.449 114.220  0.00  0.00     0.046 A 
ATOM      6  C4   11 d         -12.331 206.986 113.159  0.00  0.00     0.009 A 
ATOM      7  C5   11 d         -12.804 206.854 111.841  0.00  0.00     0.051 A 
ATOM      8  C6   11 d         -14.021 206.181 111.615  0.00  0.00     0.069 A 
ATOM      9  C8   11 d         -14.727 205.611 112.697  0.00  0.00     0.039 A 
ATOM     10  C9   11 d         -14.256 205.760 114.015  0.00  0.00     0.033 A 
ATOM     11  C10  11 d         -10.142 208.208 112.935  0.00  0.00     0.051 C 
ATOM     12  H1   11 d         -12.735 206.411 116.448  0.00  0.00     0.169 HD
ENDROOT
BRANCH  11  13
ATOM     13  C11  11 d          -8.868 208.805 113.411  0.00  0.00     0.074 A 
ATOM     14  C12  11 d          -7.602 208.352 113.068  0.00  0.00     0.120 A 
ATOM     15  N2   11 d          -6.705 209.129 113.708  0.00  0.00    -0.358 N 
ATOM     16  C13  11 d          -7.383 210.045 114.432  0.00  0.00     0.207 A 
ATOM     17  H10  11 d          -5.658 209.042 113.657  0.00  0.00     0.166 HD
ATOM     18  N3   11 d          -8.702 209.846 114.252  0.00  0.00    -0.243 NA
ENDBRANCH  11  13
BRANCH   8  19
ATOM     19  O2   11 d         -14.452 205.964 110.281  0.00  0.00    -0.356 OA
ATOM     20  C7   11 d         -14.828 207.223 109.667  0.00  0.00     0.210 C 
ENDBRANCH   8  19
TORSDOF 2
ENDMDL
MODEL 9
REMARK VINA RESULT:      -7.1      3.093      6.151
REMARK  2 active torsions:
REMARK  status: ('A' for Active; 'I' for Inactive)
REMARK    1  A    between atoms: C6_8  and  O2_9 
REMARK    2  A    between atoms: C10_13  and  C11_14 
ROOT
ATOM      1  C1   11 d         -13.737 207.167 114.358  0.00  0.00     0.047 A 
ATOM      2  C2   11 d         -14.488 206.521 115.472  0.00  0.00     0.257 A 
ATOM      3  O1   11 d         -14.132 206.459 116.698  0.00  0.00    -0.267 OA
ATOM      4  N1   11 d         -15.687 205.962 115.001  0.00  0.00    -0.322 N 
ATOM      5  C3   11 d         -15.737 206.238 113.585  0.00  0.00     0.046 A 
ATOM      6  C4   11 d         -14.616 206.958 113.183  0.00  0.00     0.009 A 
ATOM      7  C5   11 d         -14.465 207.339 111.838  0.00  0.00     0.051 A 
ATOM      8  C6   11 d         -15.467 206.991 110.911  0.00  0.00     0.069 A 
ATOM      9  C8   11 d         -16.582 206.231 111.326  0.00  0.00     0.039 A 
ATOM     10  C9   11 d         -16.735 205.865 112.677  0.00  0.00     0.033 A 
ATOM     11  C10  11 d         -12.537 207.799 114.325  0.00  0.00     0.051 C 
ATOM     12  H1   11 d         -16.428 205.431 115.570  0.00  0.00     0.169 HD
ENDROOT
BRANCH  11  13
ATOM     13  C11  11 d         -11.594 207.987 115.457  0.00  0.00     0.074 A 
ATOM     14  C12  11 d         -11.059 209.206 115.852  0.00  0.00     0.120 A 
ATOM     15  N2   11 d         -10.236 208.969 116.893  0.00  0.00    -0.358 N 
ATOM     16  C13  11 d         -10.250 207.645 117.149  0.00  0.00     0.207 A 
ATOM     17  H10  11 d          -9.677 209.689 117.419  0.00  0.00     0.166 HD
ATOM     18  N3   11 d         -11.076 207.045 116.272  0.00  0.00    -0.243 NA
ENDBRANCH  11  13
BRANCH   8  19
ATOM     19  O2   11 d         -15.272 207.291 109.538  0.00  0.00    -0.356 OA
ATOM     20  C7   11 d         -13.856 207.426 109.253  0.00  0.00     0.210 C 
ENDBRANCH   8  19
TORSDOF 2
ENDMDL
MODEL 10
REMARK VINA RESULT:      -6.9      2.552      4.340
REMARK  2 active torsions:
REMARK  status: ('A' for Active; 'I' for Inactive)
REMARK    1  A    between atoms: C6_8  and  O2_9 
REMARK    2  A    between atoms: C10_13  and  C11_14 
ROOT
ATOM      1  C1   11 d         -12.780 207.336 114.172  0.00  0.00     0.047 A 
ATOM      2  C2   11 d         -11.478 207.574 113.487  0.00  0.00     0.257 A 
ATOM      3  O1   11 d         -11.259 207.538 112.228  0.00  0.00    -0.267 OA
ATOM      4  N1   11 d         -10.470 207.855 114.423  0.00  0.00    -0.322 N 
ATOM      5  C3   11 d         -11.097 207.810 115.723  0.00  0.00     0.046 A 
ATOM      6  C4   11 d         -12.455 207.524 115.605  0.00  0.00     0.009 A 
ATOM      7  C5   11 d         -13.261 207.439 116.754  0.00  0.00     0.051 A 
ATOM      8  C6   11 d         -12.678 207.655 118.018  0.00  0.00     0.069 A 
ATOM      9  C8   11 d         -11.294 207.910 118.124  0.00  0.00     0.039 A 
ATOM     10  C9   11 d         -10.495 208.010 116.970  0.00  0.00     0.033 A 
ATOM     11  C10  11 d         -14.006 207.007 113.692  0.00  0.00     0.051 C 
ATOM     12  H1   11 d          -9.435 208.063 114.226  0.00  0.00     0.169 HD
ENDROOT
BRANCH  11  13
ATOM     13  C11  11 d         -14.373 206.752 112.276  0.00  0.00     0.074 A 
ATOM     14  C12  11 d         -14.099 205.581 111.582  0.00  0.00     0.120 A 
ATOM     15  N2   11 d         -14.565 205.735 110.326  0.00  0.00    -0.358 N 
ATOM     16  C13  11 d         -15.118 206.961 110.229  0.00  0.00     0.207 A 
ATOM     17  H10  11 d         -14.510 205.024 109.552  0.00  0.00     0.166 HD
ATOM     18  N3   11 d         -14.999 207.583 111.418  0.00  0.00    -0.243 NA
ENDBRANCH  11  13
BRANCH   8  19
ATOM     19  O2   11 d         -13.468 207.476 119.183  0.00  0.00    -0.356 OA
ATOM     20  C7   11 d         -13.664 206.062 119.439  0.00  0.00     0.210 C 
ENDBRANCH   8  19
TORSDOF 2
ENDMDL
