MODEL 1
REMARK VINA RESULT:     -10.2      0.000      0.000
REMARK  6 active torsions:
REMARK  status: ('A' for Active; 'I' for Inactive)
REMARK    1  A    between atoms: C1_1  and  C2_2 
REMARK       I    between atoms: C1_1  and  N1_11 
REMARK    2  A    between atoms: C5_5  and  C8_8 
REMARK    3  A    between atoms: N1_11  and  C10_12 
REMARK    4  A    between atoms: C10_12  and  N2_14 
REMARK    5  A    between atoms: N2_14  and  C11_15 
REMARK    6  A    between atoms: C21_27  and  O2_30 
ROOT
ATOM      1  C11  11 d          -8.863 208.831 114.579  0.00  0.00     0.035 A 
ATOM      2  C12  11 d         -10.172 208.374 114.304  0.00  0.00     0.046 A 
ATOM      3  C13  11 d         -10.635 208.144 112.985  0.00  0.00     0.035 A 
ATOM      4  C14  11 d         -12.027 207.657 112.733  0.00  0.00     0.112 A 
ATOM      5  N3   11 d         -12.540 207.336 111.509  0.00  0.00    -0.239 NA
ATOM      6  C15  11 d         -13.828 206.925 111.633  0.00  0.00     0.075 A 
ATOM      7  C16  11 d         -14.236 206.949 112.955  0.00  0.00     0.035 A 
ATOM      8  S2   11 d         -13.092 207.428 113.782  0.00  0.00    -0.067 SA
ATOM      9  C17  11 d         -15.524 206.566 113.347  0.00  0.00     0.021 A 
ATOM     10  C18  11 d         -16.417 206.149 112.339  0.00  0.00     0.002 A 
ATOM     11  C19  11 d         -16.010 206.123 110.984  0.00  0.00     0.002 A 
ATOM     12  C20  11 d         -14.704 206.515 110.622  0.00  0.00     0.033 A 
ATOM     13  C21  11 d          -9.740 208.373 111.914  0.00  0.00     0.078 A 
ATOM     14  C22  11 d          -8.449 208.846 112.168  0.00  0.00     0.040 A 
ATOM     15  C23  11 d          -8.007 209.063 113.478  0.00  0.00     0.032 A 
ENDROOT
BRANCH   1  16
ATOM     16  N2   11 d          -8.515 209.030 116.013  0.00  0.00    -0.333 N 
ATOM     17  H11  11 d          -8.164 210.018 116.249  0.00  0.00     0.168 HD
BRANCH  16  18
ATOM     18  C10  11 d          -8.566 208.103 117.175  0.00  0.00     0.179 C 
ATOM     19  S1   11 d          -7.544 208.076 118.208  0.00  0.00    -0.040 SA
BRANCH  18  20
ATOM     20  N1   11 d          -9.742 207.195 117.226  0.00  0.00    -0.299 N 
ATOM     21  C1   11 d         -10.983 207.391 117.932  0.00  0.00     0.257 C 
ATOM     22  O1   11 d         -11.146 208.462 118.618  0.00  0.00    -0.267 OA
ATOM     23  H10  11 d          -9.637 206.294 116.666  0.00  0.00     0.171 HD
BRANCH  21  24
ATOM     24  C2   11 d         -12.115 206.397 117.905  0.00  0.00     0.032 A 
ATOM     25  C3   11 d         -12.204 205.492 116.822  0.00  0.00     0.017 A 
ATOM     26  C4   11 d         -13.221 204.529 116.758  0.00  0.00     0.008 A 
ATOM     27  C5   11 d         -14.175 204.418 117.785  0.00  0.00    -0.059 A 
ATOM     28  C6   11 d         -14.118 205.340 118.851  0.00  0.00     0.008 A 
ATOM     29  C7   11 d         -13.101 206.306 118.916  0.00  0.00     0.017 A 
BRANCH  27  30
ATOM     30  C8   11 d         -15.294 203.403 117.653  0.00  0.00     0.034 C 
ATOM     31  C9   11 d         -15.944 202.964 118.966  0.00  0.00     0.010 C 
ENDBRANCH  27  30
ENDBRANCH  21  24
ENDBRANCH  18  20
ENDBRANCH  16  18
ENDBRANCH   1  16
BRANCH  13  32
ATOM     32  O2   11 d         -10.137 208.255 110.561  0.00  0.00    -0.360 OA
ATOM     33  H19  11 d         -11.168 208.158 110.585  0.00  0.00     0.217 HD
ENDBRANCH  13  32
TORSDOF 6
ENDMDL
MODEL 2
REMARK VINA RESULT:      -9.7      2.419      6.700
REMARK  6 active torsions:
REMARK  status: ('A' for Active; 'I' for Inactive)
REMARK    1  A    between atoms: C1_1  and  C2_2 
REMARK       I    between atoms: C1_1  and  N1_11 
REMARK    2  A    between atoms: C5_5  and  C8_8 
REMARK    3  A    between atoms: N1_11  and  C10_12 
REMARK    4  A    between atoms: C10_12  and  N2_14 
REMARK    5  A    between atoms: N2_14  and  C11_15 
REMARK    6  A    between atoms: C21_27  and  O2_30 
ROOT
ATOM      1  C11  11 d         -11.303 207.735 117.484  0.00  0.00     0.035 A 
ATOM      2  C12  11 d         -12.015 207.667 116.264  0.00  0.00     0.046 A 
ATOM      3  C13  11 d         -13.197 206.900 116.116  0.00  0.00     0.035 A 
ATOM      4  C14  11 d         -13.925 206.855 114.810  0.00  0.00     0.112 A 
ATOM      5  N3   11 d         -15.107 206.209 114.588  0.00  0.00    -0.239 NA
ATOM      6  C15  11 d         -15.495 206.370 113.298  0.00  0.00     0.075 A 
ATOM      7  C16  11 d         -14.587 207.140 112.594  0.00  0.00     0.035 A 
ATOM      8  S2   11 d         -13.487 207.521 113.525  0.00  0.00    -0.067 SA
ATOM      9  C17  11 d         -14.763 207.454 111.241  0.00  0.00     0.021 A 
ATOM     10  C18  11 d         -15.913 206.953 110.598  0.00  0.00     0.002 A 
ATOM     11  C19  11 d         -16.847 206.163 111.308  0.00  0.00     0.002 A 
ATOM     12  C20  11 d         -16.641 205.864 112.672  0.00  0.00     0.033 A 
ATOM     13  C21  11 d         -13.678 206.191 117.241  0.00  0.00     0.078 A 
ATOM     14  C22  11 d         -12.973 206.229 118.448  0.00  0.00     0.040 A 
ATOM     15  C23  11 d         -11.810 206.997 118.578  0.00  0.00     0.032 A 
ENDROOT
BRANCH   1  16
ATOM     16  N2   11 d         -10.077 208.579 117.492  0.00  0.00    -0.333 N 
ATOM     17  H11  11 d         -10.254 209.618 117.286  0.00  0.00     0.168 HD
BRANCH  16  18
ATOM     18  C10  11 d          -8.650 208.237 117.733  0.00  0.00     0.179 C 
ATOM     19  S1   11 d          -8.106 208.008 119.061  0.00  0.00    -0.040 SA
BRANCH  18  20
ATOM     20  N1   11 d          -7.797 208.133 116.520  0.00  0.00    -0.299 N 
ATOM     21  C1   11 d          -8.022 208.726 115.225  0.00  0.00     0.257 C 
ATOM     22  O1   11 d          -9.071 209.440 115.041  0.00  0.00    -0.267 OA
ATOM     23  H10  11 d          -6.916 207.544 116.639  0.00  0.00     0.171 HD
BRANCH  21  24
ATOM     24  C2   11 d          -7.077 208.557 114.063  0.00  0.00     0.032 A 
ATOM     25  C3   11 d          -5.706 208.333 114.324  0.00  0.00     0.017 A 
ATOM     26  C4   11 d          -4.787 208.142 113.283  0.00  0.00     0.008 A 
ATOM     27  C5   11 d          -5.207 208.145 111.941  0.00  0.00    -0.059 A 
ATOM     28  C6   11 d          -6.566 208.405 111.667  0.00  0.00     0.008 A 
ATOM     29  C7   11 d          -7.488 208.598 112.709  0.00  0.00     0.017 A 
BRANCH  27  30
ATOM     30  C8   11 d          -4.176 207.993 110.839  0.00  0.00     0.034 C 
ATOM     31  C9   11 d          -2.729 208.273 111.248  0.00  0.00     0.010 C 
ENDBRANCH  27  30
ENDBRANCH  21  24
ENDBRANCH  18  20
ENDBRANCH  16  18
ENDBRANCH   1  16
BRANCH  13  32
ATOM     32  O2   11 d         -14.799 205.330 117.167  0.00  0.00    -0.360 OA
ATOM     33  H19  11 d         -14.414 204.372 117.245  0.00  0.00     0.217 HD
ENDBRANCH  13  32
TORSDOF 6
ENDMDL
MODEL 3
REMARK VINA RESULT:      -9.3      3.598      6.103
REMARK  6 active torsions:
REMARK  status: ('A' for Active; 'I' for Inactive)
REMARK    1  A    between atoms: C1_1  and  C2_2 
REMARK       I    between atoms: C1_1  and  N1_11 
REMARK    2  A    between atoms: C5_5  and  C8_8 
REMARK    3  A    between atoms: N1_11  and  C10_12 
REMARK    4  A    between atoms: C10_12  and  N2_14 
REMARK    5  A    between atoms: N2_14  and  C11_15 
REMARK    6  A    between atoms: C21_27  and  O2_30 
ROOT
ATOM      1  C11  11 d          -8.623 208.712 114.049  0.00  0.00     0.035 A 
ATOM      2  C12  11 d          -9.955 208.258 113.914  0.00  0.00     0.046 A 
ATOM      3  C13  11 d         -10.565 208.057 112.651  0.00  0.00     0.035 A 
ATOM      4  C14  11 d         -11.976 207.573 112.547  0.00  0.00     0.112 A 
ATOM      5  N3   11 d         -12.625 207.279 111.382  0.00  0.00    -0.239 NA
ATOM      6  C15  11 d         -13.890 206.862 111.642  0.00  0.00     0.075 A 
ATOM      7  C16  11 d         -14.145 206.853 113.001  0.00  0.00     0.035 A 
ATOM      8  S2   11 d         -12.915 207.316 113.705  0.00  0.00    -0.067 SA
ATOM      9  C17  11 d         -15.380 206.457 113.528  0.00  0.00     0.021 A 
ATOM     10  C18  11 d         -16.382 206.061 112.618  0.00  0.00     0.002 A 
ATOM     11  C19  11 d         -16.132 206.069 111.226  0.00  0.00     0.002 A 
ATOM     12  C20  11 d         -14.875 206.473 110.727  0.00  0.00     0.033 A 
ATOM     13  C21  11 d          -9.797 208.314 111.491  0.00  0.00     0.078 A 
ATOM     14  C22  11 d          -8.486 208.785 111.608  0.00  0.00     0.040 A 
ATOM     15  C23  11 d          -7.898 208.972 112.864  0.00  0.00     0.032 A 
ENDROOT
BRANCH   1  16
ATOM     16  N2   11 d          -8.115 208.879 115.439  0.00  0.00    -0.333 N 
ATOM     17  H11  11 d          -8.879 209.078 116.167  0.00  0.00     0.168 HD
BRANCH  16  18
ATOM     18  C10  11 d          -6.737 208.822 115.995  0.00  0.00     0.179 C 
ATOM     19  S1   11 d          -5.685 208.004 115.416  0.00  0.00    -0.040 SA
BRANCH  18  20
ATOM     20  N1   11 d          -6.489 209.667 117.193  0.00  0.00    -0.299 N 
ATOM     21  C1   11 d          -6.422 209.252 118.572  0.00  0.00     0.257 C 
ATOM     22  O1   11 d          -6.591 208.014 118.858  0.00  0.00    -0.267 OA
ATOM     23  H10  11 d          -6.346 210.704 116.989  0.00  0.00     0.171 HD
BRANCH  21  24
ATOM     24  C2   11 d          -6.156 210.204 119.710  0.00  0.00     0.032 A 
ATOM     25  C3   11 d          -6.147 209.703 121.032  0.00  0.00     0.017 A 
ATOM     26  C4   11 d          -5.879 210.537 122.126  0.00  0.00     0.008 A 
ATOM     27  C5   11 d          -5.587 211.901 121.939  0.00  0.00    -0.059 A 
ATOM     28  C6   11 d          -5.631 212.419 120.628  0.00  0.00     0.008 A 
ATOM     29  C7   11 d          -5.901 211.585 119.531  0.00  0.00     0.017 A 
BRANCH  27  30
ATOM     30  C8   11 d          -5.360 212.784 123.151  0.00  0.00     0.034 C 
ATOM     31  C9   11 d          -5.557 212.106 124.508  0.00  0.00     0.010 C 
ENDBRANCH  27  30
ENDBRANCH  21  24
ENDBRANCH  18  20
ENDBRANCH  16  18
ENDBRANCH   1  16
BRANCH  13  32
ATOM     32  O2   11 d         -10.345 208.227 110.190  0.00  0.00    -0.360 OA
ATOM     33  H19  11 d         -10.268 207.229 109.925  0.00  0.00     0.217 HD
ENDBRANCH  13  32
TORSDOF 6
ENDMDL
MODEL 4
REMARK VINA RESULT:      -9.3      3.625      7.595
REMARK  6 active torsions:
REMARK  status: ('A' for Active; 'I' for Inactive)
REMARK    1  A    between atoms: C1_1  and  C2_2 
REMARK       I    between atoms: C1_1  and  N1_11 
REMARK    2  A    between atoms: C5_5  and  C8_8 
REMARK    3  A    between atoms: N1_11  and  C10_12 
REMARK    4  A    between atoms: C10_12  and  N2_14 
REMARK    5  A    between atoms: N2_14  and  C11_15 
REMARK    6  A    between atoms: C21_27  and  O2_30 
ROOT
ATOM      1  C11  11 d          -8.658 208.842 114.956  0.00  0.00     0.035 A 
ATOM      2  C12  11 d          -7.260 208.635 114.916  0.00  0.00     0.046 A 
ATOM      3  C13  11 d          -6.532 208.601 113.701  0.00  0.00     0.035 A 
ATOM      4  C14  11 d          -5.052 208.383 113.699  0.00  0.00     0.112 A 
ATOM      5  N3   11 d          -4.253 208.407 112.591  0.00  0.00    -0.239 NA
ATOM      6  C15  11 d          -2.962 208.177 112.939  0.00  0.00     0.075 A 
ATOM      7  C16  11 d          -2.836 207.991 114.304  0.00  0.00     0.035 A 
ATOM      8  S2   11 d          -4.191 208.111 114.912  0.00  0.00    -0.067 SA
ATOM      9  C17  11 d          -1.601 207.740 114.913  0.00  0.00     0.021 A 
ATOM     10  C18  11 d          -0.463 207.678 114.084  0.00  0.00     0.002 A 
ATOM     11  C19  11 d          -0.581 207.865 112.686  0.00  0.00     0.002 A 
ATOM     12  C20  11 d          -1.841 208.117 112.102  0.00  0.00     0.033 A 
ATOM     13  C21  11 d          -7.240 208.794 112.492  0.00  0.00     0.078 A 
ATOM     14  C22  11 d          -8.626 208.977 112.513  0.00  0.00     0.040 A 
ATOM     15  C23  11 d          -9.329 209.013 113.724  0.00  0.00     0.032 A 
ENDROOT
BRANCH   1  16
ATOM     16  N2   11 d          -9.291 208.851 116.304  0.00  0.00    -0.333 N 
ATOM     17  H11  11 d          -8.677 209.276 117.076  0.00  0.00     0.168 HD
BRANCH  16  18
ATOM     18  C10  11 d         -10.620 208.374 116.769  0.00  0.00     0.179 C 
ATOM     19  S1   11 d         -10.935 208.160 118.172  0.00  0.00    -0.040 SA
BRANCH  18  20
ATOM     20  N1   11 d         -11.627 208.128 115.704  0.00  0.00    -0.299 N 
ATOM     21  C1   11 d         -11.960 206.877 115.070  0.00  0.00     0.257 C 
ATOM     22  O1   11 d         -11.342 205.813 115.431  0.00  0.00    -0.267 OA
ATOM     23  H10  11 d         -12.158 208.994 115.381  0.00  0.00     0.171 HD
BRANCH  21  24
ATOM     24  C2   11 d         -13.012 206.747 113.999  0.00  0.00     0.032 A 
ATOM     25  C3   11 d         -14.372 206.896 114.354  0.00  0.00     0.017 A 
ATOM     26  C4   11 d         -15.391 206.811 113.395  0.00  0.00     0.008 A 
ATOM     27  C5   11 d         -15.087 206.598 112.038  0.00  0.00    -0.059 A 
ATOM     28  C6   11 d         -13.736 206.411 111.678  0.00  0.00     0.008 A 
ATOM     29  C7   11 d         -12.715 206.493 112.638  0.00  0.00     0.017 A 
BRANCH  27  30
ATOM     30  C8   11 d         -16.218 206.454 111.038  0.00  0.00     0.034 C 
ATOM     31  C9   11 d         -17.628 206.482 111.629  0.00  0.00     0.010 C 
ENDBRANCH  27  30
ENDBRANCH  21  24
ENDBRANCH  18  20
ENDBRANCH  16  18
ENDBRANCH   1  16
BRANCH  13  32
ATOM     32  O2   11 d          -6.615 208.690 111.227  0.00  0.00    -0.360 OA
ATOM     33  H19  11 d          -6.864 209.561 110.726  0.00  0.00     0.217 HD
ENDBRANCH  13  32
TORSDOF 6
ENDMDL
MODEL 5
REMARK VINA RESULT:      -9.1      3.142      7.559
REMARK  6 active torsions:
REMARK  status: ('A' for Active; 'I' for Inactive)
REMARK    1  A    between atoms: C1_1  and  C2_2 
REMARK       I    between atoms: C1_1  and  N1_11 
REMARK    2  A    between atoms: C5_5  and  C8_8 
REMARK    3  A    between atoms: N1_11  and  C10_12 
REMARK    4  A    between atoms: C10_12  and  N2_14 
REMARK    5  A    between atoms: N2_14  and  C11_15 
REMARK    6  A    between atoms: C21_27  and  O2_30 
ROOT
ATOM      1  C11  11 d          -9.928 208.416 116.270  0.00  0.00     0.035 A 
ATOM      2  C12  11 d         -10.819 208.121 115.213  0.00  0.00     0.046 A 
ATOM      3  C13  11 d         -12.143 207.669 115.438  0.00  0.00     0.035 A 
ATOM      4  C14  11 d         -13.058 207.370 114.294  0.00  0.00     0.112 A 
ATOM      5  N3   11 d         -14.368 207.003 114.407  0.00  0.00    -0.239 NA
ATOM      6  C15  11 d         -14.910 206.811 113.178  0.00  0.00     0.075 A 
ATOM      7  C16  11 d         -13.983 207.047 112.179  0.00  0.00     0.035 A 
ATOM      8  S2   11 d         -12.696 207.432 112.827  0.00  0.00    -0.067 SA
ATOM      9  C17  11 d         -14.297 206.920 110.821  0.00  0.00     0.021 A 
ATOM     10  C18  11 d         -15.612 206.535 110.488  0.00  0.00     0.002 A 
ATOM     11  C19  11 d         -16.568 206.289 111.502  0.00  0.00     0.002 A 
ATOM     12  C20  11 d         -16.219 206.427 112.862  0.00  0.00     0.033 A 
ATOM     13  C21  11 d         -12.580 207.524 116.776  0.00  0.00     0.078 A 
ATOM     14  C22  11 d         -11.703 207.790 117.833  0.00  0.00     0.040 A 
ATOM     15  C23  11 d         -10.400 208.241 117.590  0.00  0.00     0.032 A 
ENDROOT
BRANCH   1  16
ATOM     16  N2   11 d          -8.567 208.879 115.883  0.00  0.00    -0.333 N 
ATOM     17  H11  11 d          -8.558 209.638 115.123  0.00  0.00     0.168 HD
BRANCH  16  18
ATOM     18  C10  11 d          -7.218 208.475 116.361  0.00  0.00     0.179 C 
ATOM     19  S1   11 d          -6.962 208.034 117.722  0.00  0.00    -0.040 SA
BRANCH  18  20
ATOM     20  N1   11 d          -6.128 208.542 115.352  0.00  0.00    -0.299 N 
ATOM     21  C1   11 d          -6.240 208.437 113.919  0.00  0.00     0.257 C 
ATOM     22  O1   11 d          -7.397 208.262 113.396  0.00  0.00    -0.267 OA
ATOM     23  H10  11 d          -5.152 208.686 115.756  0.00  0.00     0.171 HD
BRANCH  21  24
ATOM     24  C2   11 d          -5.057 208.527 112.989  0.00  0.00     0.032 A 
ATOM     25  C3   11 d          -5.144 207.926 111.713  0.00  0.00     0.017 A 
ATOM     26  C4   11 d          -4.085 208.001 110.797  0.00  0.00     0.008 A 
ATOM     27  C5   11 d          -2.907 208.701 111.113  0.00  0.00    -0.059 A 
ATOM     28  C6   11 d          -2.795 209.274 112.397  0.00  0.00     0.008 A 
ATOM     29  C7   11 d          -3.854 209.197 113.316  0.00  0.00     0.017 A 
BRANCH  27  30
ATOM     30  C8   11 d          -1.761 208.712 110.120  0.00  0.00     0.034 C 
ATOM     31  C9   11 d          -2.025 209.468 108.817  0.00  0.00     0.010 C 
ENDBRANCH  27  30
ENDBRANCH  21  24
ENDBRANCH  18  20
ENDBRANCH  16  18
ENDBRANCH   1  16
BRANCH  13  32
ATOM     32  O2   11 d         -13.852 206.997 117.100  0.00  0.00    -0.360 OA
ATOM     33  H19  11 d         -14.514 207.458 116.451  0.00  0.00     0.217 HD
ENDBRANCH  13  32
TORSDOF 6
ENDMDL
MODEL 6
REMARK VINA RESULT:      -9.1      3.455      7.248
REMARK  6 active torsions:
REMARK  status: ('A' for Active; 'I' for Inactive)
REMARK    1  A    between atoms: C1_1  and  C2_2 
REMARK       I    between atoms: C1_1  and  N1_11 
REMARK    2  A    between atoms: C5_5  and  C8_8 
REMARK    3  A    between atoms: N1_11  and  C10_12 
REMARK    4  A    between atoms: C10_12  and  N2_14 
REMARK    5  A    between atoms: N2_14  and  C11_15 
REMARK    6  A    between atoms: C21_27  and  O2_30 
ROOT
ATOM      1  C11  11 d          -8.917 208.730 114.399  0.00  0.00     0.035 A 
ATOM      2  C12  11 d         -10.234 208.253 114.208  0.00  0.00     0.046 A 
ATOM      3  C13  11 d         -10.789 208.051 112.920  0.00  0.00     0.035 A 
ATOM      4  C14  11 d         -12.186 207.542 112.757  0.00  0.00     0.112 A 
ATOM      5  N3   11 d         -12.783 207.245 111.565  0.00  0.00    -0.239 NA
ATOM      6  C15  11 d         -14.050 206.804 111.771  0.00  0.00     0.075 A 
ATOM      7  C16  11 d         -14.359 206.781 113.119  0.00  0.00     0.035 A 
ATOM      8  S2   11 d         -13.166 207.261 113.874  0.00  0.00    -0.067 SA
ATOM      9  C17  11 d         -15.607 206.361 113.593  0.00  0.00     0.021 A 
ATOM     10  C18  11 d         -16.564 205.954 112.641  0.00  0.00     0.002 A 
ATOM     11  C19  11 d         -16.259 205.975 111.260  0.00  0.00     0.002 A 
ATOM     12  C20  11 d         -14.991 206.404 110.815  0.00  0.00     0.033 A 
ATOM     13  C21  11 d          -9.980 208.329 111.793  0.00  0.00     0.078 A 
ATOM     14  C22  11 d          -8.683 208.822 111.966  0.00  0.00     0.040 A 
ATOM     15  C23  11 d          -8.150 209.011 113.246  0.00  0.00     0.032 A 
ENDROOT
BRANCH   1  16
ATOM     16  N2   11 d          -8.468 208.896 115.810  0.00  0.00    -0.333 N 
ATOM     17  H11  11 d          -9.160 209.431 116.433  0.00  0.00     0.168 HD
BRANCH  16  18
ATOM     18  C10  11 d          -7.230 208.455 116.505  0.00  0.00     0.179 C 
ATOM     19  S1   11 d          -7.173 208.213 117.938  0.00  0.00    -0.040 SA
BRANCH  18  20
ATOM     20  N1   11 d          -6.036 208.265 115.640  0.00  0.00    -0.299 N 
ATOM     21  C1   11 d          -5.249 209.277 114.982  0.00  0.00     0.257 C 
ATOM     22  O1   11 d          -5.573 210.509 115.125  0.00  0.00    -0.267 OA
ATOM     23  H10  11 d          -5.741 207.250 115.501  0.00  0.00     0.171 HD
BRANCH  21  24
ATOM     24  C2   11 d          -4.046 208.964 114.130  0.00  0.00     0.032 A 
ATOM     25  C3   11 d          -3.760 209.793 113.021  0.00  0.00     0.017 A 
ATOM     26  C4   11 d          -2.641 209.565 112.208  0.00  0.00     0.008 A 
ATOM     27  C5   11 d          -1.750 208.513 112.487  0.00  0.00    -0.059 A 
ATOM     28  C6   11 d          -2.045 207.657 113.569  0.00  0.00     0.008 A 
ATOM     29  C7   11 d          -3.168 207.883 114.382  0.00  0.00     0.017 A 
BRANCH  27  30
ATOM     30  C8   11 d          -0.582 208.261 111.553  0.00  0.00     0.034 C 
ATOM     31  C9   11 d          -0.869 208.477 110.066  0.00  0.00     0.010 C 
ENDBRANCH  27  30
ENDBRANCH  21  24
ENDBRANCH  18  20
ENDBRANCH  16  18
ENDBRANCH   1  16
BRANCH  13  32
ATOM     32  O2   11 d         -10.474 208.241 110.471  0.00  0.00    -0.360 OA
ATOM     33  H19  11 d         -11.200 208.977 110.400  0.00  0.00     0.217 HD
ENDBRANCH  13  32
TORSDOF 6
ENDMDL
MODEL 7
REMARK VINA RESULT:      -9.1      3.747      6.692
REMARK  6 active torsions:
REMARK  status: ('A' for Active; 'I' for Inactive)
REMARK    1  A    between atoms: C1_1  and  C2_2 
REMARK       I    between atoms: C1_1  and  N1_11 
REMARK    2  A    between atoms: C5_5  and  C8_8 
REMARK    3  A    between atoms: N1_11  and  C10_12 
REMARK    4  A    between atoms: C10_12  and  N2_14 
REMARK    5  A    between atoms: N2_14  and  C11_15 
REMARK    6  A    between atoms: C21_27  and  O2_30 
ROOT
ATOM      1  C11  11 d          -9.922 208.648 116.125  0.00  0.00     0.035 A 
ATOM      2  C12  11 d         -11.121 208.220 115.510  0.00  0.00     0.046 A 
ATOM      3  C13  11 d         -11.238 208.054 114.108  0.00  0.00     0.035 A 
ATOM      4  C14  11 d         -12.522 207.596 113.493  0.00  0.00     0.112 A 
ATOM      5  N3   11 d         -12.713 207.337 112.166  0.00  0.00    -0.239 NA
ATOM      6  C15  11 d         -13.990 206.936 111.945  0.00  0.00     0.075 A 
ATOM      7  C16  11 d         -14.717 206.905 113.122  0.00  0.00     0.035 A 
ATOM      8  S2   11 d         -13.817 207.333 114.230  0.00  0.00    -0.067 SA
ATOM      9  C17  11 d         -16.062 206.522 113.160  0.00  0.00     0.021 A 
ATOM     10  C18  11 d         -16.674 206.161 111.943  0.00  0.00     0.002 A 
ATOM     11  C19  11 d         -15.941 206.190 110.733  0.00  0.00     0.002 A 
ATOM     12  C20  11 d         -14.585 206.582 110.728  0.00  0.00     0.033 A 
ATOM     13  C21  11 d         -10.103 208.320 113.307  0.00  0.00     0.078 A 
ATOM     14  C22  11 d          -8.917 208.766 113.898  0.00  0.00     0.040 A 
ATOM     15  C23  11 d          -8.818 208.918 115.286  0.00  0.00     0.032 A 
ENDROOT
BRANCH   1  16
ATOM     16  N2   11 d          -9.945 208.779 117.608  0.00  0.00    -0.333 N 
ATOM     17  H11  11 d         -10.755 209.375 117.986  0.00  0.00     0.168 HD
BRANCH  16  18
ATOM     18  C10  11 d          -9.044 208.233 118.658  0.00  0.00     0.179 C 
ATOM     19  S1   11 d          -9.200 206.901 119.218  0.00  0.00    -0.040 SA
BRANCH  18  20
ATOM     20  N1   11 d          -7.953 209.138 119.106  0.00  0.00    -0.299 N 
ATOM     21  C1   11 d          -6.609 209.227 118.592  0.00  0.00     0.257 C 
ATOM     22  O1   11 d          -6.257 208.454 117.632  0.00  0.00    -0.267 OA
ATOM     23  H10  11 d          -8.213 209.793 119.905  0.00  0.00     0.171 HD
BRANCH  21  24
ATOM     24  C2   11 d          -5.583 210.194 119.125  0.00  0.00     0.032 A 
ATOM     25  C3   11 d          -6.023 211.331 119.841  0.00  0.00     0.017 A 
ATOM     26  C4   11 d          -5.113 212.250 120.381  0.00  0.00     0.008 A 
ATOM     27  C5   11 d          -3.726 212.056 120.247  0.00  0.00    -0.059 A 
ATOM     28  C6   11 d          -3.277 210.946 119.502  0.00  0.00     0.008 A 
ATOM     29  C7   11 d          -4.188 210.025 118.959  0.00  0.00     0.017 A 
BRANCH  27  30
ATOM     30  C8   11 d          -2.773 213.101 120.794  0.00  0.00     0.034 C 
ATOM     31  C9   11 d          -2.217 212.819 122.191  0.00  0.00     0.010 C 
ENDBRANCH  27  30
ENDBRANCH  21  24
ENDBRANCH  18  20
ENDBRANCH  16  18
ENDBRANCH   1  16
BRANCH  13  32
ATOM     32  O2   11 d         -10.148 208.268 111.894  0.00  0.00    -0.360 OA
ATOM     33  H19  11 d          -9.159 208.278 111.587  0.00  0.00     0.217 HD
ENDBRANCH  13  32
TORSDOF 6
ENDMDL
MODEL 8
REMARK VINA RESULT:      -8.9      3.676      6.085
REMARK  6 active torsions:
REMARK  status: ('A' for Active; 'I' for Inactive)
REMARK    1  A    between atoms: C1_1  and  C2_2 
REMARK       I    between atoms: C1_1  and  N1_11 
REMARK    2  A    between atoms: C5_5  and  C8_8 
REMARK    3  A    between atoms: N1_11  and  C10_12 
REMARK    4  A    between atoms: C10_12  and  N2_14 
REMARK    5  A    between atoms: N2_14  and  C11_15 
REMARK    6  A    between atoms: C21_27  and  O2_30 
ROOT
ATOM      1  C11  11 d          -8.895 208.871 114.634  0.00  0.00     0.035 A 
ATOM      2  C12  11 d         -10.199 208.391 114.371  0.00  0.00     0.046 A 
ATOM      3  C13  11 d         -10.666 208.142 113.057  0.00  0.00     0.035 A 
ATOM      4  C14  11 d         -12.052 207.631 112.818  0.00  0.00     0.112 A 
ATOM      5  N3   11 d         -12.567 207.292 111.600  0.00  0.00    -0.239 NA
ATOM      6  C15  11 d         -13.847 206.862 111.736  0.00  0.00     0.075 A 
ATOM      7  C16  11 d         -14.247 206.889 113.059  0.00  0.00     0.035 A 
ATOM      8  S2   11 d         -13.106 207.394 113.875  0.00  0.00    -0.067 SA
ATOM      9  C17  11 d         -15.527 206.490 113.462  0.00  0.00     0.021 A 
ATOM     10  C18  11 d         -16.419 206.050 112.464  0.00  0.00     0.002 A 
ATOM     11  C19  11 d         -16.021 206.020 111.107  0.00  0.00     0.002 A 
ATOM     12  C20  11 d         -14.723 206.429 110.733  0.00  0.00     0.033 A 
ATOM     13  C21  11 d          -9.782 208.376 111.979  0.00  0.00     0.078 A 
ATOM     14  C22  11 d          -8.497 208.873 112.221  0.00  0.00     0.040 A 
ATOM     15  C23  11 d          -8.051 209.107 113.526  0.00  0.00     0.032 A 
ENDROOT
BRANCH   1  16
ATOM     16  N2   11 d          -8.542 209.088 116.065  0.00  0.00    -0.333 N 
ATOM     17  H11  11 d          -8.346 210.112 116.320  0.00  0.00     0.168 HD
BRANCH  16  18
ATOM     18  C10  11 d          -8.411 208.136 117.200  0.00  0.00     0.179 C 
ATOM     19  S1   11 d          -9.400 208.030 118.260  0.00  0.00    -0.040 SA
BRANCH  18  20
ATOM     20  N1   11 d          -7.195 207.281 117.187  0.00  0.00    -0.299 N 
ATOM     21  C1   11 d          -5.885 207.610 116.684  0.00  0.00     0.257 C 
ATOM     22  O1   11 d          -5.688 208.769 116.172  0.00  0.00    -0.267 OA
ATOM     23  H10  11 d          -7.326 206.309 117.605  0.00  0.00     0.171 HD
BRANCH  21  24
ATOM     24  C2   11 d          -4.718 206.657 116.732  0.00  0.00     0.032 A 
ATOM     25  C3   11 d          -3.762 206.696 115.691  0.00  0.00     0.017 A 
ATOM     26  C4   11 d          -2.643 205.851 115.697  0.00  0.00     0.008 A 
ATOM     27  C5   11 d          -2.424 204.952 116.756  0.00  0.00    -0.059 A 
ATOM     28  C6   11 d          -3.390 204.879 117.780  0.00  0.00     0.008 A 
ATOM     29  C7   11 d          -4.513 205.723 117.774  0.00  0.00     0.017 A 
BRANCH  27  30
ATOM     30  C8   11 d          -1.233 204.014 116.699  0.00  0.00     0.034 C 
ATOM     31  C9   11 d          -0.157 204.376 115.675  0.00  0.00     0.010 C 
ENDBRANCH  27  30
ENDBRANCH  21  24
ENDBRANCH  18  20
ENDBRANCH  16  18
ENDBRANCH   1  16
BRANCH  13  32
ATOM     32  O2   11 d         -10.185 208.241 110.629  0.00  0.00    -0.360 OA
ATOM     33  H19  11 d         -10.838 209.026 110.458  0.00  0.00     0.217 HD
ENDBRANCH  13  32
TORSDOF 6
ENDMDL
MODEL 9
REMARK VINA RESULT:      -8.8      2.618      3.491
REMARK  6 active torsions:
REMARK  status: ('A' for Active; 'I' for Inactive)
REMARK    1  A    between atoms: C1_1  and  C2_2 
REMARK       I    between atoms: C1_1  and  N1_11 
REMARK    2  A    between atoms: C5_5  and  C8_8 
REMARK    3  A    between atoms: N1_11  and  C10_12 
REMARK    4  A    between atoms: C10_12  and  N2_14 
REMARK    5  A    between atoms: N2_14  and  C11_15 
REMARK    6  A    between atoms: C21_27  and  O2_30 
ROOT
ATOM      1  C11  11 d          -8.762 208.866 114.401  0.00  0.00     0.035 A 
ATOM      2  C12  11 d         -10.072 208.373 114.196  0.00  0.00     0.046 A 
ATOM      3  C13  11 d         -10.597 208.130 112.903  0.00  0.00     0.035 A 
ATOM      4  C14  11 d         -11.987 207.606 112.724  0.00  0.00     0.112 A 
ATOM      5  N3   11 d         -12.555 207.270 111.529  0.00  0.00    -0.239 NA
ATOM      6  C15  11 d         -13.823 206.825 111.721  0.00  0.00     0.075 A 
ATOM      7  C16  11 d         -14.161 206.838 113.062  0.00  0.00     0.035 A 
ATOM      8  S2   11 d         -12.988 207.349 113.828  0.00  0.00    -0.067 SA
ATOM      9  C17  11 d         -15.416 206.421 113.521  0.00  0.00     0.021 A 
ATOM     10  C18  11 d         -16.349 205.980 112.562  0.00  0.00     0.002 A 
ATOM     11  C19  11 d         -16.014 205.964 111.187  0.00  0.00     0.002 A 
ATOM     12  C20  11 d         -14.740 206.390 110.757  0.00  0.00     0.033 A 
ATOM     13  C21  11 d          -9.766 208.382 111.786  0.00  0.00     0.078 A 
ATOM     14  C22  11 d          -8.477 208.890 111.972  0.00  0.00     0.040 A 
ATOM     15  C23  11 d          -7.973 209.120 113.257  0.00  0.00     0.032 A 
ENDROOT
BRANCH   1  16
ATOM     16  N2   11 d          -8.345 209.076 115.815  0.00  0.00    -0.333 N 
ATOM     17  H11  11 d          -9.059 209.613 116.411  0.00  0.00     0.168 HD
BRANCH  16  18
ATOM     18  C10  11 d          -7.114 208.675 116.547  0.00  0.00     0.179 C 
ATOM     19  S1   11 d          -5.776 208.963 116.057  0.00  0.00    -0.040 SA
BRANCH  18  20
ATOM     20  N1   11 d          -7.330 207.957 117.831  0.00  0.00    -0.299 N 
ATOM     21  C1   11 d          -8.517 207.268 118.272  0.00  0.00     0.257 C 
ATOM     22  O1   11 d          -9.543 207.240 117.503  0.00  0.00    -0.267 OA
ATOM     23  H10  11 d          -6.496 207.963 118.494  0.00  0.00     0.171 HD
BRANCH  21  24
ATOM     24  C2   11 d          -8.619 206.565 119.601  0.00  0.00     0.032 A 
ATOM     25  C3   11 d          -9.875 206.064 120.014  0.00  0.00     0.017 A 
ATOM     26  C4   11 d         -10.023 205.379 121.228  0.00  0.00     0.008 A 
ATOM     27  C5   11 d          -8.917 205.148 122.066  0.00  0.00    -0.059 A 
ATOM     28  C6   11 d          -7.667 205.677 121.681  0.00  0.00     0.008 A 
ATOM     29  C7   11 d          -7.518 206.365 120.466  0.00  0.00     0.017 A 
BRANCH  27  30
ATOM     30  C8   11 d          -9.126 204.454 123.398  0.00  0.00     0.034 C 
ATOM     31  C9   11 d          -9.926 205.245 124.434  0.00  0.00     0.010 C 
ENDBRANCH  27  30
ENDBRANCH  21  24
ENDBRANCH  18  20
ENDBRANCH  16  18
ENDBRANCH   1  16
BRANCH  13  32
ATOM     32  O2   11 d         -10.231 208.253 110.456  0.00  0.00    -0.360 OA
ATOM     33  H19  11 d         -11.109 207.708 110.524  0.00  0.00     0.217 HD
ENDBRANCH  13  32
TORSDOF 6
ENDMDL
MODEL 10
REMARK VINA RESULT:      -8.7      4.155      6.100
REMARK  6 active torsions:
REMARK  status: ('A' for Active; 'I' for Inactive)
REMARK    1  A    between atoms: C1_1  and  C2_2 
REMARK       I    between atoms: C1_1  and  N1_11 
REMARK    2  A    between atoms: C5_5  and  C8_8 
REMARK    3  A    between atoms: N1_11  and  C10_12 
REMARK    4  A    between atoms: C10_12  and  N2_14 
REMARK    5  A    between atoms: N2_14  and  C11_15 
REMARK    6  A    between atoms: C21_27  and  O2_30 
ROOT
ATOM      1  C11  11 d         -13.321 205.512 118.159  0.00  0.00     0.035 A 
ATOM      2  C12  11 d         -13.915 205.686 116.887  0.00  0.00     0.046 A 
ATOM      3  C13  11 d         -13.177 206.115 115.757  0.00  0.00     0.035 A 
ATOM      4  C14  11 d         -13.839 206.285 114.426  0.00  0.00     0.112 A 
ATOM      5  N3   11 d         -13.202 206.621 113.266  0.00  0.00    -0.239 NA
ATOM      6  C15  11 d         -14.092 206.687 112.244  0.00  0.00     0.075 A 
ATOM      7  C16  11 d         -15.373 206.392 112.675  0.00  0.00     0.035 A 
ATOM      8  S2   11 d         -15.312 206.104 114.137  0.00  0.00    -0.067 SA
ATOM      9  C17  11 d         -16.472 206.389 111.808  0.00  0.00     0.021 A 
ATOM     10  C18  11 d         -16.237 206.703 110.454  0.00  0.00     0.002 A 
ATOM     11  C19  11 d         -14.931 207.009 110.003  0.00  0.00     0.002 A 
ATOM     12  C20  11 d         -13.844 207.003 110.903  0.00  0.00     0.033 A 
ATOM     13  C21  11 d         -11.794 206.365 115.918  0.00  0.00     0.078 A 
ATOM     14  C22  11 d         -11.197 206.220 117.174  0.00  0.00     0.040 A 
ATOM     15  C23  11 d         -11.941 205.789 118.279  0.00  0.00     0.032 A 
ENDROOT
BRANCH   1  16
ATOM     16  N2   11 d         -14.220 205.057 119.256  0.00  0.00    -0.333 N 
ATOM     17  H11  11 d         -14.196 203.998 119.435  0.00  0.00     0.168 HD
BRANCH  16  18
ATOM     18  C10  11 d         -15.147 205.809 120.143  0.00  0.00     0.179 C 
ATOM     19  S1   11 d         -14.917 207.189 120.536  0.00  0.00    -0.040 SA
BRANCH  18  20
ATOM     20  N1   11 d         -16.344 205.061 120.608  0.00  0.00    -0.299 N 
ATOM     21  C1   11 d         -17.135 205.300 121.790  0.00  0.00     0.257 C 
ATOM     22  O1   11 d         -16.810 206.264 122.571  0.00  0.00    -0.267 OA
ATOM     23  H10  11 d         -16.639 204.251 119.981  0.00  0.00     0.171 HD
BRANCH  21  24
ATOM     24  C2   11 d         -18.340 204.475 122.159  0.00  0.00     0.032 A 
ATOM     25  C3   11 d         -18.825 203.522 121.233  0.00  0.00     0.017 A 
ATOM     26  C4   11 d         -19.927 202.708 121.534  0.00  0.00     0.008 A 
ATOM     27  C5   11 d         -20.571 202.799 122.781  0.00  0.00    -0.059 A 
ATOM     28  C6   11 d         -20.120 203.771 123.697  0.00  0.00     0.008 A 
ATOM     29  C7   11 d         -19.017 204.588 123.396  0.00  0.00     0.017 A 
BRANCH  27  30
ATOM     30  C8   11 d         -21.795 201.944 123.048  0.00  0.00     0.034 C 
ATOM     31  C9   11 d         -21.626 200.448 122.776  0.00  0.00     0.010 C 
ENDBRANCH  27  30
ENDBRANCH  21  24
ENDBRANCH  18  20
ENDBRANCH  16  18
ENDBRANCH   1  16
BRANCH  13  32
ATOM     32  O2   11 d         -10.994 206.881 114.871  0.00  0.00    -0.360 OA
ATOM     33  H19  11 d         -10.485 206.065 114.487  0.00  0.00     0.217 HD
ENDBRANCH  13  32
TORSDOF 6
ENDMDL
MODEL 11
REMARK VINA RESULT:      -8.6      4.426      6.012
REMARK  6 active torsions:
REMARK  status: ('A' for Active; 'I' for Inactive)
REMARK    1  A    between atoms: C1_1  and  C2_2 
REMARK       I    between atoms: C1_1  and  N1_11 
REMARK    2  A    between atoms: C5_5  and  C8_8 
REMARK    3  A    between atoms: N1_11  and  C10_12 
REMARK    4  A    between atoms: C10_12  and  N2_14 
REMARK    5  A    between atoms: N2_14  and  C11_15 
REMARK    6  A    between atoms: C21_27  and  O2_30 
ROOT
ATOM      1  C11  11 d         -13.770 205.815 118.292  0.00  0.00     0.035 A 
ATOM      2  C12  11 d         -14.209 205.973 116.957  0.00  0.00     0.046 A 
ATOM      3  C13  11 d         -13.318 206.248 115.891  0.00  0.00     0.035 A 
ATOM      4  C14  11 d         -13.819 206.405 114.491  0.00  0.00     0.112 A 
ATOM      5  N3   11 d         -13.035 206.597 113.389  0.00  0.00    -0.239 NA
ATOM      6  C15  11 d         -13.805 206.696 112.276  0.00  0.00     0.075 A 
ATOM      7  C16  11 d         -15.148 206.569 112.583  0.00  0.00     0.035 A 
ATOM      8  S2   11 d         -15.267 206.368 114.056  0.00  0.00    -0.067 SA
ATOM      9  C17  11 d         -16.148 206.632 111.606  0.00  0.00     0.021 A 
ATOM     10  C18  11 d         -15.745 206.834 110.270  0.00  0.00     0.002 A 
ATOM     11  C19  11 d         -14.374 206.966 109.945  0.00  0.00     0.002 A 
ATOM     12  C20  11 d         -13.390 206.898 110.955  0.00  0.00     0.033 A 
ATOM     13  C21  11 d         -11.938 206.355 116.185  0.00  0.00     0.078 A 
ATOM     14  C22  11 d         -11.490 206.224 117.504  0.00  0.00     0.040 A 
ATOM     15  C23  11 d         -12.386 205.947 118.543  0.00  0.00     0.032 A 
ENDROOT
BRANCH   1  16
ATOM     16  N2   11 d         -14.820 205.530 119.308  0.00  0.00    -0.333 N 
ATOM     17  H11  11 d         -15.572 206.293 119.392  0.00  0.00     0.168 HD
BRANCH  16  18
ATOM     18  C10  11 d         -15.009 204.379 120.229  0.00  0.00     0.179 C 
ATOM     19  S1   11 d         -16.238 203.604 120.283  0.00  0.00    -0.040 SA
BRANCH  18  20
ATOM     20  N1   11 d         -13.851 204.053 121.103  0.00  0.00    -0.299 N 
ATOM     21  C1   11 d         -13.155 204.928 122.013  0.00  0.00     0.257 C 
ATOM     22  O1   11 d         -13.538 206.147 122.121  0.00  0.00    -0.267 OA
ATOM     23  H10  11 d         -13.508 203.047 121.036  0.00  0.00     0.171 HD
BRANCH  21  24
ATOM     24  C2   11 d         -11.990 204.482 122.859  0.00  0.00     0.032 A 
ATOM     25  C3   11 d         -12.230 203.616 123.950  0.00  0.00     0.017 A 
ATOM     26  C4   11 d         -11.182 203.149 124.755  0.00  0.00     0.008 A 
ATOM     27  C5   11 d          -9.849 203.511 124.486  0.00  0.00    -0.059 A 
ATOM     28  C6   11 d          -9.602 204.404 123.423  0.00  0.00     0.008 A 
ATOM     29  C7   11 d         -10.652 204.874 122.617  0.00  0.00     0.017 A 
BRANCH  27  30
ATOM     30  C8   11 d          -8.748 203.033 125.413  0.00  0.00     0.034 C 
ATOM     31  C9   11 d          -8.658 201.517 125.602  0.00  0.00     0.010 C 
ENDBRANCH  27  30
ENDBRANCH  21  24
ENDBRANCH  18  20
ENDBRANCH  16  18
ENDBRANCH   1  16
BRANCH  13  32
ATOM     32  O2   11 d         -10.984 206.714 115.205  0.00  0.00    -0.360 OA
ATOM     33  H19  11 d         -10.544 207.583 115.555  0.00  0.00     0.217 HD
ENDBRANCH  13  32
TORSDOF 6
ENDMDL
MODEL 12
REMARK VINA RESULT:      -8.6      3.548      6.328
REMARK  6 active torsions:
REMARK  status: ('A' for Active; 'I' for Inactive)
REMARK    1  A    between atoms: C1_1  and  C2_2 
REMARK       I    between atoms: C1_1  and  N1_11 
REMARK    2  A    between atoms: C5_5  and  C8_8 
REMARK    3  A    between atoms: N1_11  and  C10_12 
REMARK    4  A    between atoms: C10_12  and  N2_14 
REMARK    5  A    between atoms: N2_14  and  C11_15 
REMARK    6  A    between atoms: C21_27  and  O2_30 
ROOT
ATOM      1  C11  11 d         -10.549 208.454 116.661  0.00  0.00     0.035 A 
ATOM      2  C12  11 d         -11.406 208.185 115.570  0.00  0.00     0.046 A 
ATOM      3  C13  11 d         -12.650 207.525 115.725  0.00  0.00     0.035 A 
ATOM      4  C14  11 d         -13.532 207.260 114.547  0.00  0.00     0.112 A 
ATOM      5  N3   11 d         -14.776 206.701 114.603  0.00  0.00    -0.239 NA
ATOM      6  C15  11 d         -15.305 206.605 113.357  0.00  0.00     0.075 A 
ATOM      7  C16  11 d         -14.435 207.104 112.404  0.00  0.00     0.035 A 
ATOM      8  S2   11 d         -13.205 207.573 113.104  0.00  0.00    -0.067 SA
ATOM      9  C17  11 d         -14.750 207.121 111.040  0.00  0.00     0.021 A 
ATOM     10  C18  11 d         -16.003 206.605 110.652  0.00  0.00     0.002 A 
ATOM     11  C19  11 d         -16.899 206.091 111.618  0.00  0.00     0.002 A 
ATOM     12  C20  11 d         -16.552 206.088 112.985  0.00  0.00     0.033 A 
ATOM     13  C21  11 d         -13.042 207.138 117.028  0.00  0.00     0.078 A 
ATOM     14  C22  11 d         -12.195 207.377 118.115  0.00  0.00     0.040 A 
ATOM     15  C23  11 d         -10.972 208.034 117.943  0.00  0.00     0.032 A 
ENDROOT
BRANCH   1  16
ATOM     16  N2   11 d          -9.272 209.153 116.348  0.00  0.00    -0.333 N 
ATOM     17  H11  11 d          -9.021 209.942 117.032  0.00  0.00     0.168 HD
BRANCH  16  18
ATOM     18  C10  11 d          -8.285 208.953 115.253  0.00  0.00     0.179 C 
ATOM     19  S1   11 d          -8.412 209.586 113.951  0.00  0.00    -0.040 SA
BRANCH  18  20
ATOM     20  N1   11 d          -7.140 208.060 115.572  0.00  0.00    -0.299 N 
ATOM     21  C1   11 d          -6.429 207.941 116.820  0.00  0.00     0.257 C 
ATOM     22  O1   11 d          -6.785 208.673 117.811  0.00  0.00    -0.267 OA
ATOM     23  H10  11 d          -6.819 207.439 114.767  0.00  0.00     0.171 HD
BRANCH  21  24
ATOM     24  C2   11 d          -5.279 206.990 117.029  0.00  0.00     0.032 A 
ATOM     25  C3   11 d          -5.497 205.809 117.776  0.00  0.00     0.017 A 
ATOM     26  C4   11 d          -4.471 204.875 117.980  0.00  0.00     0.008 A 
ATOM     27  C5   11 d          -3.194 205.074 117.425  0.00  0.00    -0.059 A 
ATOM     28  C6   11 d          -2.955 206.266 116.710  0.00  0.00     0.008 A 
ATOM     29  C7   11 d          -3.982 207.203 116.506  0.00  0.00     0.017 A 
BRANCH  27  30
ATOM     30  C8   11 d          -2.094 204.071 117.715  0.00  0.00     0.034 C 
ATOM     31  C9   11 d          -2.545 202.614 117.832  0.00  0.00     0.010 C 
ENDBRANCH  27  30
ENDBRANCH  21  24
ENDBRANCH  18  20
ENDBRANCH  16  18
ENDBRANCH   1  16
BRANCH  13  32
ATOM     32  O2   11 d         -14.223 206.398 117.271  0.00  0.00    -0.360 OA
ATOM     33  H19  11 d         -13.927 205.588 117.845  0.00  0.00     0.217 HD
ENDBRANCH  13  32
TORSDOF 6
ENDMDL
MODEL 13
REMARK VINA RESULT:      -8.5      3.813      6.436
REMARK  6 active torsions:
REMARK  status: ('A' for Active; 'I' for Inactive)
REMARK    1  A    between atoms: C1_1  and  C2_2 
REMARK       I    between atoms: C1_1  and  N1_11 
REMARK    2  A    between atoms: C5_5  and  C8_8 
REMARK    3  A    between atoms: N1_11  and  C10_12 
REMARK    4  A    between atoms: C10_12  and  N2_14 
REMARK    5  A    between atoms: N2_14  and  C11_15 
REMARK    6  A    between atoms: C21_27  and  O2_30 
ROOT
ATOM      1  C11  11 d         -14.223 206.594 116.613  0.00  0.00     0.035 A 
ATOM      2  C12  11 d         -12.995 207.161 116.200  0.00  0.00     0.046 A 
ATOM      3  C13  11 d         -12.517 207.052 114.871  0.00  0.00     0.035 A 
ATOM      4  C14  11 d         -11.214 207.669 114.471  0.00  0.00     0.112 A 
ATOM      5  N3   11 d         -10.705 207.683 113.204  0.00  0.00    -0.239 NA
ATOM      6  C15  11 d          -9.509 208.325 113.185  0.00  0.00     0.075 A 
ATOM      7  C16  11 d          -9.164 208.777 114.446  0.00  0.00     0.035 A 
ATOM      8  S2   11 d         -10.250 208.386 115.390  0.00  0.00    -0.067 SA
ATOM      9  C17  11 d          -7.976 209.475 114.691  0.00  0.00     0.021 A 
ATOM     10  C18  11 d          -7.118 209.710 113.597  0.00  0.00     0.002 A 
ATOM     11  C19  11 d          -7.461 209.250 112.304  0.00  0.00     0.002 A 
ATOM     12  C20  11 d          -8.667 208.550 112.090  0.00  0.00     0.033 A 
ATOM     13  C21  11 d         -13.312 206.358 113.930  0.00  0.00     0.078 A 
ATOM     14  C22  11 d         -14.518 205.772 114.328  0.00  0.00     0.040 A 
ATOM     15  C23  11 d         -14.977 205.894 115.644  0.00  0.00     0.032 A 
ENDROOT
BRANCH   1  16
ATOM     16  N2   11 d         -14.598 206.786 118.041  0.00  0.00    -0.333 N 
ATOM     17  H11  11 d         -15.245 207.625 118.218  0.00  0.00     0.168 HD
BRANCH  16  18
ATOM     18  C10  11 d         -14.232 206.025 119.264  0.00  0.00     0.179 C 
ATOM     19  S1   11 d         -12.860 205.878 119.722  0.00  0.00    -0.040 SA
BRANCH  18  20
ATOM     20  N1   11 d         -15.366 205.417 120.010  0.00  0.00    -0.299 N 
ATOM     21  C1   11 d         -16.405 206.091 120.747  0.00  0.00     0.257 C 
ATOM     22  O1   11 d         -16.400 207.372 120.800  0.00  0.00    -0.267 OA
ATOM     23  H10  11 d         -15.398 204.352 119.986  0.00  0.00     0.171 HD
BRANCH  21  24
ATOM     24  C2   11 d         -17.515 205.365 121.462  0.00  0.00     0.032 A 
ATOM     25  C3   11 d         -17.366 205.075 122.838  0.00  0.00     0.017 A 
ATOM     26  C4   11 d         -18.376 204.425 123.560  0.00  0.00     0.008 A 
ATOM     27  C5   11 d         -19.585 204.061 122.941  0.00  0.00    -0.059 A 
ATOM     28  C6   11 d         -19.730 204.312 121.560  0.00  0.00     0.008 A 
ATOM     29  C7   11 d         -18.717 204.961 120.835  0.00  0.00     0.017 A 
BRANCH  27  30
ATOM     30  C8   11 d         -20.632 203.308 123.739  0.00  0.00     0.034 C 
ATOM     31  C9   11 d         -21.354 202.188 122.988  0.00  0.00     0.010 C 
ENDBRANCH  27  30
ENDBRANCH  21  24
ENDBRANCH  18  20
ENDBRANCH  16  18
ENDBRANCH   1  16
BRANCH  13  32
ATOM     32  O2   11 d         -12.878 206.122 112.604  0.00  0.00    -0.360 OA
ATOM     33  H19  11 d         -12.319 205.251 112.649  0.00  0.00     0.217 HD
ENDBRANCH  13  32
TORSDOF 6
ENDMDL
MODEL 14
REMARK VINA RESULT:      -8.5      3.377      7.841
REMARK  6 active torsions:
REMARK  status: ('A' for Active; 'I' for Inactive)
REMARK    1  A    between atoms: C1_1  and  C2_2 
REMARK       I    between atoms: C1_1  and  N1_11 
REMARK    2  A    between atoms: C5_5  and  C8_8 
REMARK    3  A    between atoms: N1_11  and  C10_12 
REMARK    4  A    between atoms: C10_12  and  N2_14 
REMARK    5  A    between atoms: N2_14  and  C11_15 
REMARK    6  A    between atoms: C21_27  and  O2_30 
ROOT
ATOM      1  C11  11 d          -7.451 208.329 116.822  0.00  0.00     0.035 A 
ATOM      2  C12  11 d          -8.126 207.643 117.857  0.00  0.00     0.046 A 
ATOM      3  C13  11 d          -7.446 207.079 118.964  0.00  0.00     0.035 A 
ATOM      4  C14  11 d          -8.195 206.363 120.043  0.00  0.00     0.112 A 
ATOM      5  N3   11 d          -7.642 205.852 121.182  0.00  0.00    -0.239 NA
ATOM      6  C15  11 d          -8.598 205.270 121.949  0.00  0.00     0.075 A 
ATOM      7  C16  11 d          -9.844 205.370 121.357  0.00  0.00     0.035 A 
ATOM      8  S2   11 d          -9.683 206.093 120.063  0.00  0.00    -0.067 SA
ATOM      9  C17  11 d         -10.999 204.850 121.953  0.00  0.00     0.021 A 
ATOM     10  C18  11 d         -10.858 204.205 123.198  0.00  0.00     0.002 A 
ATOM     11  C19  11 d          -9.588 204.096 123.812  0.00  0.00     0.002 A 
ATOM     12  C20  11 d          -8.443 204.632 123.185  0.00  0.00     0.033 A 
ATOM     13  C21  11 d          -6.041 207.225 119.029  0.00  0.00     0.078 A 
ATOM     14  C22  11 d          -5.355 207.881 118.002  0.00  0.00     0.040 A 
ATOM     15  C23  11 d          -6.045 208.437 116.918  0.00  0.00     0.032 A 
ENDROOT
BRANCH   1  16
ATOM     16  N2   11 d          -8.295 208.868 115.720  0.00  0.00    -0.333 N 
ATOM     17  H11  11 d          -9.130 209.457 116.051  0.00  0.00     0.168 HD
BRANCH  16  18
ATOM     18  C10  11 d          -8.188 208.732 114.243  0.00  0.00     0.179 C 
ATOM     19  S1   11 d          -6.998 209.110 113.499  0.00  0.00    -0.040 SA
BRANCH  18  20
ATOM     20  N1   11 d          -9.384 208.173 113.558  0.00  0.00    -0.299 N 
ATOM     21  C1   11 d         -10.754 208.200 114.004  0.00  0.00     0.257 C 
ATOM     22  O1   11 d         -11.034 208.760 115.123  0.00  0.00    -0.267 OA
ATOM     23  H10  11 d          -9.184 207.699 112.625  0.00  0.00     0.171 HD
BRANCH  21  24
ATOM     24  C2   11 d         -11.891 207.602 113.216  0.00  0.00     0.032 A 
ATOM     25  C3   11 d         -13.219 207.889 113.608  0.00  0.00     0.017 A 
ATOM     26  C4   11 d         -14.315 207.382 112.897  0.00  0.00     0.008 A 
ATOM     27  C5   11 d         -14.127 206.588 111.751  0.00  0.00    -0.059 A 
ATOM     28  C6   11 d         -12.807 206.265 111.373  0.00  0.00     0.008 A 
ATOM     29  C7   11 d         -11.708 206.770 112.086  0.00  0.00     0.017 A 
BRANCH  27  30
ATOM     30  C8   11 d         -15.336 206.010 111.042  0.00  0.00     0.034 C 
ATOM     31  C9   11 d         -16.588 205.840 111.904  0.00  0.00     0.010 C 
ENDBRANCH  27  30
ENDBRANCH  21  24
ENDBRANCH  18  20
ENDBRANCH  16  18
ENDBRANCH   1  16
BRANCH  13  32
ATOM     32  O2   11 d          -5.266 206.622 120.048  0.00  0.00    -0.360 OA
ATOM     33  H19  11 d          -5.766 205.749 120.293  0.00  0.00     0.217 HD
ENDBRANCH  13  32
TORSDOF 6
ENDMDL
MODEL 15
REMARK VINA RESULT:      -8.4      4.216      8.790
REMARK  6 active torsions:
REMARK  status: ('A' for Active; 'I' for Inactive)
REMARK    1  A    between atoms: C1_1  and  C2_2 
REMARK       I    between atoms: C1_1  and  N1_11 
REMARK    2  A    between atoms: C5_5  and  C8_8 
REMARK    3  A    between atoms: N1_11  and  C10_12 
REMARK    4  A    between atoms: C10_12  and  N2_14 
REMARK    5  A    between atoms: N2_14  and  C11_15 
REMARK    6  A    between atoms: C21_27  and  O2_30 
ROOT
ATOM      1  C11  11 d         -13.587 205.199 118.697  0.00  0.00     0.035 A 
ATOM      2  C12  11 d         -14.515 205.368 119.750  0.00  0.00     0.046 A 
ATOM      3  C13  11 d         -15.696 204.593 119.854  0.00  0.00     0.035 A 
ATOM      4  C14  11 d         -16.653 204.799 120.985  0.00  0.00     0.112 A 
ATOM      5  N3   11 d         -17.776 204.056 121.213  0.00  0.00    -0.239 NA
ATOM      6  C15  11 d         -18.417 204.502 122.323  0.00  0.00     0.075 A 
ATOM      7  C16  11 d         -17.746 205.567 122.895  0.00  0.00     0.035 A 
ATOM      8  S2   11 d         -16.538 205.848 122.068  0.00  0.00    -0.067 SA
ATOM      9  C17  11 d         -18.204 206.204 124.054  0.00  0.00     0.021 A 
ATOM     10  C18  11 d         -19.394 205.724 124.637  0.00  0.00     0.002 A 
ATOM     11  C19  11 d         -20.089 204.636 124.059  0.00  0.00     0.002 A 
ATOM     12  C20  11 d         -19.601 204.015 122.890  0.00  0.00     0.033 A 
ATOM     13  C21  11 d         -15.938 203.610 118.867  0.00  0.00     0.078 A 
ATOM     14  C22  11 d         -15.042 203.446 117.806  0.00  0.00     0.040 A 
ATOM     15  C23  11 d         -13.877 204.217 117.723  0.00  0.00     0.032 A 
ENDROOT
BRANCH   1  16
ATOM     16  N2   11 d         -12.391 206.085 118.716  0.00  0.00    -0.333 N 
ATOM     17  H11  11 d         -11.734 205.923 119.550  0.00  0.00     0.168 HD
BRANCH  16  18
ATOM     18  C10  11 d         -11.947 207.157 117.786  0.00  0.00     0.179 C 
ATOM     19  S1   11 d         -10.917 208.124 118.129  0.00  0.00    -0.040 SA
BRANCH  18  20
ATOM     20  N1   11 d         -12.621 207.183 116.461  0.00  0.00    -0.299 N 
ATOM     21  C1   11 d         -12.400 206.308 115.337  0.00  0.00     0.257 C 
ATOM     22  O1   11 d         -11.525 205.376 115.436  0.00  0.00    -0.267 OA
ATOM     23  H10  11 d         -13.354 207.948 116.346  0.00  0.00     0.171 HD
BRANCH  21  24
ATOM     24  C2   11 d         -13.153 206.426 114.037  0.00  0.00     0.032 A 
ATOM     25  C3   11 d         -14.565 206.503 114.070  0.00  0.00     0.017 A 
ATOM     26  C4   11 d         -15.316 206.640 112.894  0.00  0.00     0.008 A 
ATOM     27  C5   11 d         -14.683 206.729 111.641  0.00  0.00    -0.059 A 
ATOM     28  C6   11 d         -13.278 206.615 111.593  0.00  0.00     0.008 A 
ATOM     29  C7   11 d         -12.525 206.476 112.770  0.00  0.00     0.017 A 
BRANCH  27  30
ATOM     30  C8   11 d         -15.530 206.818 110.386  0.00  0.00     0.034 C 
ATOM     31  C9   11 d         -14.888 207.553 109.208  0.00  0.00     0.010 C 
ENDBRANCH  27  30
ENDBRANCH  21  24
ENDBRANCH  18  20
ENDBRANCH  16  18
ENDBRANCH   1  16
BRANCH  13  32
ATOM     32  O2   11 d         -17.131 202.849 118.837  0.00  0.00    -0.360 OA
ATOM     33  H19  11 d         -17.878 203.520 118.587  0.00  0.00     0.217 HD
ENDBRANCH  13  32
TORSDOF 6
ENDMDL
MODEL 16
REMARK VINA RESULT:      -8.3      2.957      7.524
REMARK  6 active torsions:
REMARK  status: ('A' for Active; 'I' for Inactive)
REMARK    1  A    between atoms: C1_1  and  C2_2 
REMARK       I    between atoms: C1_1  and  N1_11 
REMARK    2  A    between atoms: C5_5  and  C8_8 
REMARK    3  A    between atoms: N1_11  and  C10_12 
REMARK    4  A    between atoms: C10_12  and  N2_14 
REMARK    5  A    between atoms: N2_14  and  C11_15 
REMARK    6  A    between atoms: C21_27  and  O2_30 
ROOT
ATOM      1  C11  11 d         -10.967 205.741 119.926  0.00  0.00     0.035 A 
ATOM      2  C12  11 d         -10.264 206.484 118.949  0.00  0.00     0.046 A 
ATOM      3  C13  11 d          -8.911 206.870 119.116  0.00  0.00     0.035 A 
ATOM      4  C14  11 d          -8.199 207.653 118.059  0.00  0.00     0.112 A 
ATOM      5  N3   11 d          -6.881 208.007 118.093  0.00  0.00    -0.239 NA
ATOM      6  C15  11 d          -6.554 208.708 116.978  0.00  0.00     0.075 A 
ATOM      7  C16  11 d          -7.644 208.852 116.139  0.00  0.00     0.035 A 
ATOM      8  S2   11 d          -8.809 208.174 116.777  0.00  0.00    -0.067 SA
ATOM      9  C17  11 d          -7.565 209.535 114.920  0.00  0.00     0.021 A 
ATOM     10  C18  11 d          -6.319 210.087 114.560  0.00  0.00     0.002 A 
ATOM     11  C19  11 d          -5.198 209.946 115.411  0.00  0.00     0.002 A 
ATOM     12  C20  11 d          -5.311 209.251 116.634  0.00  0.00     0.033 A 
ATOM     13  C21  11 d          -8.248 206.481 120.303  0.00  0.00     0.078 A 
ATOM     14  C22  11 d          -8.935 205.766 121.288  0.00  0.00     0.040 A 
ATOM     15  C23  11 d         -10.270 205.389 121.104  0.00  0.00     0.032 A 
ENDROOT
BRANCH   1  16
ATOM     16  N2   11 d         -12.384 205.408 119.615  0.00  0.00    -0.333 N 
ATOM     17  H11  11 d         -12.656 204.391 119.830  0.00  0.00     0.168 HD
BRANCH  16  18
ATOM     18  C10  11 d         -13.489 206.233 119.058  0.00  0.00     0.179 C 
ATOM     19  S1   11 d         -14.538 206.808 119.883  0.00  0.00    -0.040 SA
BRANCH  18  20
ATOM     20  N1   11 d         -13.456 206.447 117.587  0.00  0.00    -0.299 N 
ATOM     21  C1   11 d         -12.975 205.545 116.571  0.00  0.00     0.257 C 
ATOM     22  O1   11 d         -12.504 204.406 116.922  0.00  0.00    -0.267 OA
ATOM     23  H10  11 d         -13.839 207.387 117.262  0.00  0.00     0.171 HD
BRANCH  21  24
ATOM     24  C2   11 d         -12.998 205.870 115.100  0.00  0.00     0.032 A 
ATOM     25  C3   11 d         -11.796 206.261 114.467  0.00  0.00     0.017 A 
ATOM     26  C4   11 d         -11.754 206.550 113.095  0.00  0.00     0.008 A 
ATOM     27  C5   11 d         -12.907 206.435 112.299  0.00  0.00    -0.059 A 
ATOM     28  C6   11 d         -14.120 206.081 112.926  0.00  0.00     0.008 A 
ATOM     29  C7   11 d         -14.164 205.794 114.300  0.00  0.00     0.017 A 
BRANCH  27  30
ATOM     30  C8   11 d         -12.836 206.810 110.831  0.00  0.00     0.034 C 
ATOM     31  C9   11 d         -14.181 206.904 110.109  0.00  0.00     0.010 C 
ENDBRANCH  27  30
ENDBRANCH  21  24
ENDBRANCH  18  20
ENDBRANCH  16  18
ENDBRANCH   1  16
BRANCH  13  32
ATOM     32  O2   11 d          -6.927 206.893 120.598  0.00  0.00    -0.360 OA
ATOM     33  H19  11 d          -6.918 207.078 121.617  0.00  0.00     0.217 HD
ENDBRANCH  13  32
TORSDOF 6
ENDMDL
MODEL 17
REMARK VINA RESULT:      -8.2      4.323      9.621
REMARK  6 active torsions:
REMARK  status: ('A' for Active; 'I' for Inactive)
REMARK    1  A    between atoms: C1_1  and  C2_2 
REMARK       I    between atoms: C1_1  and  N1_11 
REMARK    2  A    between atoms: C5_5  and  C8_8 
REMARK    3  A    between atoms: N1_11  and  C10_12 
REMARK    4  A    between atoms: C10_12  and  N2_14 
REMARK    5  A    between atoms: N2_14  and  C11_15 
REMARK    6  A    between atoms: C21_27  and  O2_30 
ROOT
ATOM      1  C11  11 d          -7.345 208.276 117.249  0.00  0.00     0.035 A 
ATOM      2  C12  11 d          -6.579 209.012 118.182  0.00  0.00     0.046 A 
ATOM      3  C13  11 d          -7.048 209.306 119.487  0.00  0.00     0.035 A 
ATOM      4  C14  11 d          -6.208 210.085 120.448  0.00  0.00     0.112 A 
ATOM      5  N3   11 d          -6.538 210.354 121.745  0.00  0.00    -0.239 NA
ATOM      6  C15  11 d          -5.556 211.078 122.340  0.00  0.00     0.075 A 
ATOM      7  C16  11 d          -4.515 211.324 121.463  0.00  0.00     0.035 A 
ATOM      8  S2   11 d          -4.855 210.695 120.155  0.00  0.00    -0.067 SA
ATOM      9  C17  11 d          -3.378 212.049 121.837  0.00  0.00     0.021 A 
ATOM     10  C18  11 d          -3.318 212.536 123.159  0.00  0.00     0.002 A 
ATOM     11  C19  11 d          -4.379 212.292 124.063  0.00  0.00     0.002 A 
ATOM     12  C20  11 d          -5.512 211.556 123.655  0.00  0.00     0.033 A 
ATOM     13  C21  11 d          -8.326 208.829 119.860  0.00  0.00     0.078 A 
ATOM     14  C22  11 d          -9.105 208.118 118.941  0.00  0.00     0.040 A 
ATOM     15  C23  11 d          -8.623 207.833 117.658  0.00  0.00     0.032 A 
ENDROOT
BRANCH   1  16
ATOM     16  N2   11 d          -6.724 208.045 115.915  0.00  0.00    -0.333 N 
ATOM     17  H11  11 d          -5.964 207.286 115.907  0.00  0.00     0.168 HD
BRANCH  16  18
ATOM     18  C10  11 d          -6.969 208.681 114.594  0.00  0.00     0.179 C 
ATOM     19  S1   11 d          -6.142 209.755 114.070  0.00  0.00    -0.040 SA
BRANCH  18  20
ATOM     20  N1   11 d          -8.122 208.146 113.823  0.00  0.00    -0.299 N 
ATOM     21  C1   11 d          -9.511 208.518 113.932  0.00  0.00     0.257 C 
ATOM     22  O1   11 d          -9.850 209.415 114.782  0.00  0.00    -0.267 OA
ATOM     23  H10  11 d          -7.873 207.396 113.108  0.00  0.00     0.171 HD
BRANCH  21  24
ATOM     24  C2   11 d         -10.598 207.907 113.087  0.00  0.00     0.032 A 
ATOM     25  C3   11 d         -11.760 207.410 113.722  0.00  0.00     0.017 A 
ATOM     26  C4   11 d         -12.815 206.855 112.984  0.00  0.00     0.008 A 
ATOM     27  C5   11 d         -12.760 206.797 111.579  0.00  0.00    -0.059 A 
ATOM     28  C6   11 d         -11.590 207.256 110.938  0.00  0.00     0.008 A 
ATOM     29  C7   11 d         -10.532 207.810 111.676  0.00  0.00     0.017 A 
BRANCH  27  30
ATOM     30  C8   11 d         -13.894 206.138 110.819  0.00  0.00     0.034 C 
ATOM     31  C9   11 d         -14.931 207.092 110.224  0.00  0.00     0.010 C 
ENDBRANCH  27  30
ENDBRANCH  21  24
ENDBRANCH  18  20
ENDBRANCH  16  18
ENDBRANCH   1  16
BRANCH  13  32
ATOM     32  O2   11 d          -8.915 209.145 121.106  0.00  0.00    -0.360 OA
ATOM     33  H19  11 d          -9.921 209.288 120.907  0.00  0.00     0.217 HD
ENDBRANCH  13  32
TORSDOF 6
ENDMDL
MODEL 18
REMARK VINA RESULT:      -8.2      4.397      8.720
REMARK  6 active torsions:
REMARK  status: ('A' for Active; 'I' for Inactive)
REMARK    1  A    between atoms: C1_1  and  C2_2 
REMARK       I    between atoms: C1_1  and  N1_11 
REMARK    2  A    between atoms: C5_5  and  C8_8 
REMARK    3  A    between atoms: N1_11  and  C10_12 
REMARK    4  A    between atoms: C10_12  and  N2_14 
REMARK    5  A    between atoms: N2_14  and  C11_15 
REMARK    6  A    between atoms: C21_27  and  O2_30 
ROOT
ATOM      1  C11  11 d          -5.569 207.974 114.423  0.00  0.00     0.035 A 
ATOM      2  C12  11 d          -5.603 208.779 115.584  0.00  0.00     0.046 A 
ATOM      3  C13  11 d          -4.452 209.026 116.372  0.00  0.00     0.035 A 
ATOM      4  C14  11 d          -4.526 209.887 117.593  0.00  0.00     0.112 A 
ATOM      5  N3   11 d          -3.463 210.243 118.373  0.00  0.00    -0.239 NA
ATOM      6  C15  11 d          -3.876 211.031 119.397  0.00  0.00     0.075 A 
ATOM      7  C16  11 d          -5.242 211.244 119.347  0.00  0.00     0.035 A 
ATOM      8  S2   11 d          -5.779 210.514 118.164  0.00  0.00    -0.067 SA
ATOM      9  C17  11 d          -5.911 212.028 120.293  0.00  0.00     0.021 A 
ATOM     10  C18  11 d          -5.143 212.609 121.323  0.00  0.00     0.002 A 
ATOM     11  C19  11 d          -3.746 212.396 121.385  0.00  0.00     0.002 A 
ATOM     12  C20  11 d          -3.100 211.600 120.415  0.00  0.00     0.033 A 
ATOM     13  C21  11 d          -3.227 208.449 115.963  0.00  0.00     0.078 A 
ATOM     14  C22  11 d          -3.181 207.631 114.830  0.00  0.00     0.040 A 
ATOM     15  C23  11 d          -4.328 207.403 114.060  0.00  0.00     0.032 A 
ENDROOT
BRANCH   1  16
ATOM     16  N2   11 d          -6.856 207.801 113.695  0.00  0.00    -0.333 N 
ATOM     17  H11  11 d          -6.904 206.917 113.086  0.00  0.00     0.168 HD
BRANCH  16  18
ATOM     18  C10  11 d          -8.086 208.636 113.661  0.00  0.00     0.179 C 
ATOM     19  S1   11 d          -8.115 210.017 114.115  0.00  0.00    -0.040 SA
BRANCH  18  20
ATOM     20  N1   11 d          -9.302 207.974 113.121  0.00  0.00    -0.299 N 
ATOM     21  C1   11 d         -10.523 207.657 113.819  0.00  0.00     0.257 C 
ATOM     22  O1   11 d         -10.626 207.960 115.060  0.00  0.00    -0.267 OA
ATOM     23  H10  11 d          -9.247 207.707 112.090  0.00  0.00     0.171 HD
BRANCH  21  24
ATOM     24  C2   11 d         -11.700 206.985 113.161  0.00  0.00     0.032 A 
ATOM     25  C3   11 d         -12.742 206.481 113.975  0.00  0.00     0.017 A 
ATOM     26  C4   11 d         -13.873 205.870 113.416  0.00  0.00     0.008 A 
ATOM     27  C5   11 d         -14.019 205.761 112.022  0.00  0.00    -0.059 A 
ATOM     28  C6   11 d         -12.969 206.226 111.202  0.00  0.00     0.008 A 
ATOM     29  C7   11 d         -11.835 206.836 111.760  0.00  0.00     0.017 A 
BRANCH  27  30
ATOM     30  C8   11 d         -15.229 205.042 111.456  0.00  0.00     0.034 C 
ATOM     31  C9   11 d         -16.586 205.637 111.836  0.00  0.00     0.010 C 
ENDBRANCH  27  30
ENDBRANCH  21  24
ENDBRANCH  18  20
ENDBRANCH  16  18
ENDBRANCH   1  16
BRANCH  13  32
ATOM     32  O2   11 d          -2.045 208.566 116.731  0.00  0.00    -0.360 OA
ATOM     33  H19  11 d          -1.477 209.287 116.253  0.00  0.00     0.217 HD
ENDBRANCH  13  32
TORSDOF 6
ENDMDL
MODEL 19
REMARK VINA RESULT:      -8.2      2.301      3.273
REMARK  6 active torsions:
REMARK  status: ('A' for Active; 'I' for Inactive)
REMARK    1  A    between atoms: C1_1  and  C2_2 
REMARK       I    between atoms: C1_1  and  N1_11 
REMARK    2  A    between atoms: C5_5  and  C8_8 
REMARK    3  A    between atoms: N1_11  and  C10_12 
REMARK    4  A    between atoms: C10_12  and  N2_14 
REMARK    5  A    between atoms: N2_14  and  C11_15 
REMARK    6  A    between atoms: C21_27  and  O2_30 
ROOT
ATOM      1  C11  11 d          -6.843 209.142 116.763  0.00  0.00     0.035 A 
ATOM      2  C12  11 d          -7.897 208.772 115.896  0.00  0.00     0.046 A 
ATOM      3  C13  11 d          -7.787 208.860 114.486  0.00  0.00     0.035 A 
ATOM      4  C14  11 d          -8.923 208.456 113.600  0.00  0.00     0.112 A 
ATOM      5  N3   11 d          -8.889 208.434 112.235  0.00  0.00    -0.239 NA
ATOM      6  C15  11 d         -10.082 208.015 111.743  0.00  0.00     0.075 A 
ATOM      7  C16  11 d         -10.974 207.732 112.762  0.00  0.00     0.035 A 
ATOM      8  S2   11 d         -10.289 207.996 114.059  0.00  0.00    -0.067 SA
ATOM      9  C17  11 d         -12.274 207.278 112.514  0.00  0.00     0.021 A 
ATOM     10  C18  11 d         -12.664 207.115 111.169  0.00  0.00     0.002 A 
ATOM     11  C19  11 d         -11.761 207.404 110.118  0.00  0.00     0.002 A 
ATOM     12  C20  11 d         -10.456 207.859 110.402  0.00  0.00     0.033 A 
ATOM     13  C21  11 d          -6.569 209.326 113.939  0.00  0.00     0.078 A 
ATOM     14  C22  11 d          -5.526 209.717 114.783  0.00  0.00     0.040 A 
ATOM     15  C23  11 d          -5.650 209.618 116.174  0.00  0.00     0.032 A 
ENDROOT
BRANCH   1  16
ATOM     16  N2   11 d          -7.101 208.998 118.222  0.00  0.00    -0.333 N 
ATOM     17  H11  11 d          -6.217 209.019 118.831  0.00  0.00     0.168 HD
BRANCH  16  18
ATOM     18  C10  11 d          -8.367 208.828 118.984  0.00  0.00     0.179 C 
ATOM     19  S1   11 d          -8.465 209.066 120.415  0.00  0.00    -0.040 SA
BRANCH  18  20
ATOM     20  N1   11 d          -9.547 208.399 118.189  0.00  0.00    -0.299 N 
ATOM     21  C1   11 d         -10.441 207.300 118.452  0.00  0.00     0.257 C 
ATOM     22  O1   11 d         -10.240 206.567 119.485  0.00  0.00    -0.267 OA
ATOM     23  H10  11 d          -9.741 208.988 117.322  0.00  0.00     0.171 HD
BRANCH  21  24
ATOM     24  C2   11 d         -11.617 206.963 117.572  0.00  0.00     0.032 A 
ATOM     25  C3   11 d         -11.557 205.803 116.765  0.00  0.00     0.017 A 
ATOM     26  C4   11 d         -12.632 205.426 115.948  0.00  0.00     0.008 A 
ATOM     27  C5   11 d         -13.818 206.182 115.923  0.00  0.00    -0.059 A 
ATOM     28  C6   11 d         -13.875 207.361 116.695  0.00  0.00     0.008 A 
ATOM     29  C7   11 d         -12.799 207.740 117.513  0.00  0.00     0.017 A 
BRANCH  27  30
ATOM     30  C8   11 d         -14.937 205.776 114.982  0.00  0.00     0.034 C 
ATOM     31  C9   11 d         -15.495 206.895 114.101  0.00  0.00     0.010 C 
ENDBRANCH  27  30
ENDBRANCH  21  24
ENDBRANCH  18  20
ENDBRANCH  16  18
ENDBRANCH   1  16
BRANCH  13  32
ATOM     32  O2   11 d          -6.396 209.531 112.550  0.00  0.00    -0.360 OA
ATOM     33  H19  11 d          -6.097 208.614 112.172  0.00  0.00     0.217 HD
ENDBRANCH  13  32
TORSDOF 6
ENDMDL
MODEL 20
REMARK VINA RESULT:      -8.0      4.458      8.946
REMARK  6 active torsions:
REMARK  status: ('A' for Active; 'I' for Inactive)
REMARK    1  A    between atoms: C1_1  and  C2_2 
REMARK       I    between atoms: C1_1  and  N1_11 
REMARK    2  A    between atoms: C5_5  and  C8_8 
REMARK    3  A    between atoms: N1_11  and  C10_12 
REMARK    4  A    between atoms: C10_12  and  N2_14 
REMARK    5  A    between atoms: N2_14  and  C11_15 
REMARK    6  A    between atoms: C21_27  and  O2_30 
ROOT
ATOM      1  C11  11 d          -7.509 208.052 117.321  0.00  0.00     0.035 A 
ATOM      2  C12  11 d          -6.341 207.257 117.268  0.00  0.00     0.046 A 
ATOM      3  C13  11 d          -6.090 206.212 118.191  0.00  0.00     0.035 A 
ATOM      4  C14  11 d          -4.844 205.390 118.102  0.00  0.00     0.112 A 
ATOM      5  N3   11 d          -4.547 204.319 118.895  0.00  0.00    -0.239 NA
ATOM      6  C15  11 d          -3.343 203.797 118.548  0.00  0.00     0.075 A 
ATOM      7  C16  11 d          -2.778 204.497 117.497  0.00  0.00     0.035 A 
ATOM      8  S2   11 d          -3.713 205.596 117.119  0.00  0.00    -0.067 SA
ATOM      9  C17  11 d          -1.536 204.153 116.952  0.00  0.00     0.021 A 
ATOM     10  C18  11 d          -0.858 203.052 117.513  0.00  0.00     0.002 A 
ATOM     11  C19  11 d          -1.427 202.330 118.589  0.00  0.00     0.002 A 
ATOM     12  C20  11 d          -2.681 202.702 119.116  0.00  0.00     0.033 A 
ATOM     13  C21  11 d          -7.058 205.958 119.191  0.00  0.00     0.078 A 
ATOM     14  C22  11 d          -8.208 206.750 119.271  0.00  0.00     0.040 A 
ATOM     15  C23  11 d          -8.442 207.775 118.346  0.00  0.00     0.032 A 
ENDROOT
BRANCH   1  16
ATOM     16  N2   11 d          -7.638 209.115 116.287  0.00  0.00    -0.333 N 
ATOM     17  H11  11 d          -7.859 210.090 116.680  0.00  0.00     0.168 HD
BRANCH  16  18
ATOM     18  C10  11 d          -7.519 209.065 114.805  0.00  0.00     0.179 C 
ATOM     19  S1   11 d          -6.335 209.516 114.093  0.00  0.00    -0.040 SA
BRANCH  18  20
ATOM     20  N1   11 d          -8.694 208.513 114.081  0.00  0.00    -0.299 N 
ATOM     21  C1   11 d         -10.084 208.597 114.453  0.00  0.00     0.257 C 
ATOM     22  O1   11 d         -10.403 209.211 115.533  0.00  0.00    -0.267 OA
ATOM     23  H10  11 d          -8.462 207.995 113.179  0.00  0.00     0.171 HD
BRANCH  21  24
ATOM     24  C2   11 d         -11.197 208.001 113.631  0.00  0.00     0.032 A 
ATOM     25  C3   11 d         -10.910 207.533 112.328  0.00  0.00     0.017 A 
ATOM     26  C4   11 d         -11.900 206.946 111.529  0.00  0.00     0.008 A 
ATOM     27  C5   11 d         -13.212 206.781 112.010  0.00  0.00    -0.059 A 
ATOM     28  C6   11 d         -13.519 207.278 113.294  0.00  0.00     0.008 A 
ATOM     29  C7   11 d         -12.528 207.868 114.095  0.00  0.00     0.017 A 
BRANCH  27  30
ATOM     30  C8   11 d         -14.270 206.195 111.096  0.00  0.00     0.034 C 
ATOM     31  C9   11 d         -14.540 206.980 109.811  0.00  0.00     0.010 C 
ENDBRANCH  27  30
ENDBRANCH  21  24
ENDBRANCH  18  20
ENDBRANCH  16  18
ENDBRANCH   1  16
BRANCH  13  32
ATOM     32  O2   11 d          -6.856 204.997 120.209  0.00  0.00    -0.360 OA
ATOM     33  H19  11 d          -6.329 205.489 120.951  0.00  0.00     0.217 HD
ENDBRANCH  13  32
TORSDOF 6
ENDMDL
