MODEL 1
REMARK VINA RESULT:      -8.4      0.000      0.000
REMARK  4 active torsions:
REMARK  status: ('A' for Active; 'I' for Inactive)
REMARK    1  A    between atoms: C1_1  and  C2_2 
REMARK    2  A    between atoms: C4_4  and  N1_5 
REMARK    3  A    between atoms: N2_11  and  N3_12 
REMARK       I    between atoms: N3_12  and  C8_13 
REMARK       I    between atoms: C8_13  and  N4_15 
REMARK    4  A    between atoms: N4_15  and  C9_16 
ROOT
ATOM      1  C1   11 d         -11.581 207.121 111.455  0.00  0.00     0.061 C 
ATOM      2  N2   11 d         -10.909 206.945 112.577  0.00  0.00    -0.175 NA
ATOM      3  C15  11 d         -10.833 207.850 110.370  0.00  0.00     0.073 C 
ENDROOT
BRANCH   2   4
ATOM      4  N3   11 d         -11.201 206.119 113.683  0.00  0.00    -0.228 N 
ATOM      5  C8   11 d         -11.869 206.406 114.922  0.00  0.00     0.341 C 
ATOM      6  O3   11 d         -12.331 207.564 115.180  0.00  0.00    -0.245 OA
ATOM      7  N4   11 d         -11.999 205.333 115.862  0.00  0.00    -0.308 N 
ATOM      8  H6   11 d         -11.587 204.387 115.565  0.00  0.00     0.170 HD
ATOM      9  H5   11 d         -10.858 205.112 113.543  0.00  0.00     0.194 HD
BRANCH   7  10
ATOM     10  C9   11 d         -12.632 205.370 117.200  0.00  0.00     0.036 A 
ATOM     11  C10  11 d         -13.864 204.693 117.341  0.00  0.00     0.029 A 
ATOM     12  C11  11 d         -14.539 204.660 118.570  0.00  0.00     0.002 A 
ATOM     13  C12  11 d         -13.991 205.303 119.686  0.00  0.00     0.000 A 
ATOM     14  C13  11 d         -12.771 205.982 119.569  0.00  0.00     0.002 A 
ATOM     15  C14  11 d         -12.096 206.020 118.338  0.00  0.00     0.029 A 
ENDBRANCH   7  10
ENDBRANCH   2   4
BRANCH   1  16
ATOM     16  C2   11 d         -13.037 206.892 111.239  0.00  0.00    -0.008 A 
ATOM     17  C3   11 d         -13.882 206.543 112.314  0.00  0.00     0.049 A 
ATOM     18  C4   11 d         -15.274 206.358 112.125  0.00  0.00     0.103 A 
ATOM     19  C5   11 d         -15.806 206.575 110.832  0.00  0.00     0.036 A 
ATOM     20  C6   11 d         -14.978 206.952 109.767  0.00  0.00     0.003 A 
ATOM     21  C7   11 d         -13.601 207.108 109.968  0.00  0.00     0.013 A 
BRANCH  18  22
ATOM     22  N1   11 d         -16.107 205.984 113.182  0.00  0.00    -0.116 N 
ATOM     23  O1   11 d         -17.229 205.833 113.011  0.00  0.00    -0.532 OA
ATOM     24  O2   11 d         -15.691 206.019 114.373  0.00  0.00    -0.532 OA
ENDBRANCH  18  22
ENDBRANCH   1  16
TORSDOF 4
ENDMDL
MODEL 2
REMARK VINA RESULT:      -8.4      3.192      5.722
REMARK  4 active torsions:
REMARK  status: ('A' for Active; 'I' for Inactive)
REMARK    1  A    between atoms: C1_1  and  C2_2 
REMARK    2  A    between atoms: C4_4  and  N1_5 
REMARK    3  A    between atoms: N2_11  and  N3_12 
REMARK       I    between atoms: N3_12  and  C8_13 
REMARK       I    between atoms: C8_13  and  N4_15 
REMARK    4  A    between atoms: N4_15  and  C9_16 
ROOT
ATOM      1  C1   11 d         -13.893 205.919 112.108  0.00  0.00     0.061 C 
ATOM      2  N2   11 d         -13.179 206.407 111.112  0.00  0.00    -0.175 NA
ATOM      3  C15  11 d         -14.774 204.751 111.751  0.00  0.00     0.073 C 
ENDROOT
BRANCH   2   4
ATOM      4  N3   11 d         -12.100 207.316 111.135  0.00  0.00    -0.228 N 
ATOM      5  C8   11 d         -10.963 207.405 112.010  0.00  0.00     0.341 C 
ATOM      6  O3   11 d         -10.781 206.573 112.957  0.00  0.00    -0.245 OA
ATOM      7  N4   11 d         -10.034 208.469 111.774  0.00  0.00    -0.308 N 
ATOM      8  H6   11 d         -10.259 209.123 110.952  0.00  0.00     0.170 HD
ATOM      9  H5   11 d         -12.165 208.048 110.354  0.00  0.00     0.194 HD
BRANCH   7  10
ATOM     10  C9   11 d          -8.800 208.780 112.529  0.00  0.00     0.036 A 
ATOM     11  C10  11 d          -8.961 209.425 113.776  0.00  0.00     0.029 A 
ATOM     12  C11  11 d          -7.855 209.753 114.573  0.00  0.00     0.002 A 
ATOM     13  C12  11 d          -6.563 209.439 114.139  0.00  0.00     0.000 A 
ATOM     14  C13  11 d          -6.378 208.801 112.906  0.00  0.00     0.002 A 
ATOM     15  C14  11 d          -7.484 208.476 112.103  0.00  0.00     0.029 A 
ENDBRANCH   7  10
ENDBRANCH   2   4
BRANCH   1  16
ATOM     16  C2   11 d         -14.092 206.533 113.450  0.00  0.00    -0.008 A 
ATOM     17  C3   11 d         -13.973 205.759 114.625  0.00  0.00     0.049 A 
ATOM     18  C4   11 d         -14.126 206.342 115.907  0.00  0.00     0.103 A 
ATOM     19  C5   11 d         -14.360 207.735 115.983  0.00  0.00     0.036 A 
ATOM     20  C6   11 d         -14.450 208.514 114.823  0.00  0.00     0.003 A 
ATOM     21  C7   11 d         -14.318 207.918 113.564  0.00  0.00     0.013 A 
BRANCH  18  22
ATOM     22  N1   11 d         -14.036 205.572 117.070  0.00  0.00    -0.116 N 
ATOM     23  O1   11 d         -14.270 204.451 117.041  0.00  0.00    -0.532 OA
ATOM     24  O2   11 d         -13.916 206.122 118.199  0.00  0.00    -0.532 OA
ENDBRANCH  18  22
ENDBRANCH   1  16
TORSDOF 4
ENDMDL
MODEL 3
REMARK VINA RESULT:      -8.4      1.928      3.168
REMARK  4 active torsions:
REMARK  status: ('A' for Active; 'I' for Inactive)
REMARK    1  A    between atoms: C1_1  and  C2_2 
REMARK    2  A    between atoms: C4_4  and  N1_5 
REMARK    3  A    between atoms: N2_11  and  N3_12 
REMARK       I    between atoms: N3_12  and  C8_13 
REMARK       I    between atoms: C8_13  and  N4_15 
REMARK    4  A    between atoms: N4_15  and  C9_16 
ROOT
ATOM      1  C1   11 d         -11.128 207.885 114.940  0.00  0.00     0.061 C 
ATOM      2  N2   11 d         -11.292 207.474 116.183  0.00  0.00    -0.175 NA
ATOM      3  C15  11 d         -10.266 209.110 114.781  0.00  0.00     0.073 C 
ENDROOT
BRANCH   2   4
ATOM      4  N3   11 d         -11.820 206.259 116.669  0.00  0.00    -0.228 N 
ATOM      5  C8   11 d         -13.147 205.914 117.099  0.00  0.00     0.341 C 
ATOM      6  O3   11 d         -14.099 206.760 117.075  0.00  0.00    -0.245 OA
ATOM      7  N4   11 d         -13.362 204.574 117.556  0.00  0.00    -0.308 N 
ATOM      8  H6   11 d         -12.509 203.923 117.539  0.00  0.00     0.170 HD
ATOM      9  H5   11 d         -11.084 205.479 116.707  0.00  0.00     0.194 HD
BRANCH   7  10
ATOM     10  C9   11 d         -14.622 203.977 118.054  0.00  0.00     0.036 A 
ATOM     11  C10  11 d         -14.962 204.237 119.401  0.00  0.00     0.029 A 
ATOM     12  C11  11 d         -16.139 203.725 119.965  0.00  0.00     0.002 A 
ATOM     13  C12  11 d         -17.004 202.944 119.191  0.00  0.00     0.000 A 
ATOM     14  C13  11 d         -16.687 202.672 117.854  0.00  0.00     0.002 A 
ATOM     15  C14  11 d         -15.505 203.179 117.288  0.00  0.00     0.029 A 
ENDBRANCH   7  10
ENDBRANCH   2   4
BRANCH   1  16
ATOM     16  C2   11 d         -11.875 207.421 113.738  0.00  0.00    -0.008 A 
ATOM     17  C3   11 d         -13.281 207.521 113.677  0.00  0.00     0.049 A 
ATOM     18  C4   11 d         -13.997 207.115 112.524  0.00  0.00     0.103 A 
ATOM     19  C5   11 d         -13.260 206.643 111.413  0.00  0.00     0.036 A 
ATOM     20  C6   11 d         -11.862 206.569 111.455  0.00  0.00     0.003 A 
ATOM     21  C7   11 d         -11.173 206.954 112.611  0.00  0.00     0.013 A 
BRANCH  18  22
ATOM     22  N1   11 d         -15.392 207.187 112.473  0.00  0.00    -0.116 N 
ATOM     23  O1   11 d         -16.018 206.969 113.407  0.00  0.00    -0.532 OA
ATOM     24  O2   11 d         -15.993 207.273 111.366  0.00  0.00    -0.532 OA
ENDBRANCH  18  22
ENDBRANCH   1  16
TORSDOF 4
ENDMDL
MODEL 4
REMARK VINA RESULT:      -8.2      2.319      3.122
REMARK  4 active torsions:
REMARK  status: ('A' for Active; 'I' for Inactive)
REMARK    1  A    between atoms: C1_1  and  C2_2 
REMARK    2  A    between atoms: C4_4  and  N1_5 
REMARK    3  A    between atoms: N2_11  and  N3_12 
REMARK       I    between atoms: N3_12  and  C8_13 
REMARK       I    between atoms: C8_13  and  N4_15 
REMARK    4  A    between atoms: N4_15  and  C9_16 
ROOT
ATOM      1  C1   11 d          -9.640 208.805 114.116  0.00  0.00     0.061 C 
ATOM      2  N2   11 d         -10.244 209.167 115.232  0.00  0.00    -0.175 NA
ATOM      3  C15  11 d          -8.207 209.252 113.991  0.00  0.00     0.073 C 
ENDROOT
BRANCH   2   4
ATOM      4  N3   11 d         -11.471 208.731 115.776  0.00  0.00    -0.228 N 
ATOM      5  C8   11 d         -11.816 207.520 116.469  0.00  0.00     0.341 C 
ATOM      6  O3   11 d         -10.953 206.613 116.702  0.00  0.00    -0.245 OA
ATOM      7  N4   11 d         -13.176 207.371 116.892  0.00  0.00    -0.308 N 
ATOM      8  H6   11 d         -13.838 208.183 116.660  0.00  0.00     0.170 HD
ATOM      9  H5   11 d         -12.257 209.447 115.637  0.00  0.00     0.194 HD
BRANCH   7  10
ATOM     10  C9   11 d         -13.783 206.227 117.610  0.00  0.00     0.036 A 
ATOM     11  C10  11 d         -14.137 205.102 116.832  0.00  0.00     0.029 A 
ATOM     12  C11  11 d         -14.709 203.964 117.418  0.00  0.00     0.002 A 
ATOM     13  C12  11 d         -14.934 203.926 118.799  0.00  0.00     0.000 A 
ATOM     14  C13  11 d         -14.591 205.030 119.590  0.00  0.00     0.002 A 
ATOM     15  C14  11 d         -14.023 206.173 119.004  0.00  0.00     0.029 A 
ENDBRANCH   7  10
ENDBRANCH   2   4
BRANCH   1  16
ATOM     16  C2   11 d         -10.277 208.223 112.902  0.00  0.00    -0.008 A 
ATOM     17  C3   11 d         -11.403 207.379 113.009  0.00  0.00     0.049 A 
ATOM     18  C4   11 d         -12.037 206.850 111.858  0.00  0.00     0.103 A 
ATOM     19  C5   11 d         -11.536 207.224 110.589  0.00  0.00     0.036 A 
ATOM     20  C6   11 d         -10.437 208.085 110.475  0.00  0.00     0.003 A 
ATOM     21  C7   11 d          -9.810 208.581 111.624  0.00  0.00     0.013 A 
BRANCH  18  22
ATOM     22  N1   11 d         -13.134 205.991 111.964  0.00  0.00    -0.116 N 
ATOM     23  O1   11 d         -13.737 205.704 111.033  0.00  0.00    -0.532 OA
ATOM     24  O2   11 d         -13.613 205.694 113.093  0.00  0.00    -0.532 OA
ENDBRANCH  18  22
ENDBRANCH   1  16
TORSDOF 4
ENDMDL
MODEL 5
REMARK VINA RESULT:      -8.2      4.310      5.652
REMARK  4 active torsions:
REMARK  status: ('A' for Active; 'I' for Inactive)
REMARK    1  A    between atoms: C1_1  and  C2_2 
REMARK    2  A    between atoms: C4_4  and  N1_5 
REMARK    3  A    between atoms: N2_11  and  N3_12 
REMARK       I    between atoms: N3_12  and  C8_13 
REMARK       I    between atoms: C8_13  and  N4_15 
REMARK    4  A    between atoms: N4_15  and  C9_16 
ROOT
ATOM      1  C1   11 d         -11.209 207.534 110.981  0.00  0.00     0.061 C 
ATOM      2  N2   11 d         -10.160 208.224 111.385  0.00  0.00    -0.175 NA
ATOM      3  C15  11 d         -11.437 207.531 109.492  0.00  0.00     0.073 C 
ENDROOT
BRANCH   2   4
ATOM      4  N3   11 d          -9.525 208.244 112.646  0.00  0.00    -0.228 N 
ATOM      5  C8   11 d          -8.152 208.469 113.005  0.00  0.00     0.341 C 
ATOM      6  O3   11 d          -7.262 208.711 112.127  0.00  0.00    -0.245 OA
ATOM      7  N4   11 d          -7.820 208.413 114.397  0.00  0.00    -0.308 N 
ATOM      8  H6   11 d          -8.630 208.208 115.072  0.00  0.00     0.170 HD
ATOM      9  H5   11 d         -10.211 208.064 113.451  0.00  0.00     0.194 HD
BRANCH   7  10
ATOM     10  C9   11 d          -6.491 208.599 115.021  0.00  0.00     0.036 A 
ATOM     11  C10  11 d          -6.312 209.760 115.807  0.00  0.00     0.029 A 
ATOM     12  C11  11 d          -5.094 210.024 116.448  0.00  0.00     0.002 A 
ATOM     13  C12  11 d          -4.028 209.126 116.320  0.00  0.00     0.000 A 
ATOM     14  C13  11 d          -4.181 207.969 115.546  0.00  0.00     0.002 A 
ATOM     15  C14  11 d          -5.399 207.706 114.898  0.00  0.00     0.029 A 
ENDBRANCH   7  10
ENDBRANCH   2   4
BRANCH   1  16
ATOM     16  C2   11 d         -12.295 206.974 111.833  0.00  0.00    -0.008 A 
ATOM     17  C3   11 d         -13.592 206.776 111.315  0.00  0.00     0.049 A 
ATOM     18  C4   11 d         -14.621 206.210 112.108  0.00  0.00     0.103 A 
ATOM     19  C5   11 d         -14.303 205.808 113.427  0.00  0.00     0.036 A 
ATOM     20  C6   11 d         -13.010 205.975 113.937  0.00  0.00     0.003 A 
ATOM     21  C7   11 d         -12.011 206.555 113.147  0.00  0.00     0.013 A 
BRANCH  18  22
ATOM     22  N1   11 d         -15.914 206.040 111.606  0.00  0.00    -0.116 N 
ATOM     23  O1   11 d         -16.243 206.587 110.654  0.00  0.00    -0.532 OA
ATOM     24  O2   11 d         -16.803 205.467 112.294  0.00  0.00    -0.532 OA
ENDBRANCH  18  22
ENDBRANCH   1  16
TORSDOF 4
ENDMDL
MODEL 6
REMARK VINA RESULT:      -8.2      3.309      5.579
REMARK  4 active torsions:
REMARK  status: ('A' for Active; 'I' for Inactive)
REMARK    1  A    between atoms: C1_1  and  C2_2 
REMARK    2  A    between atoms: C4_4  and  N1_5 
REMARK    3  A    between atoms: N2_11  and  N3_12 
REMARK       I    between atoms: N3_12  and  C8_13 
REMARK       I    between atoms: C8_13  and  N4_15 
REMARK    4  A    between atoms: N4_15  and  C9_16 
ROOT
ATOM      1  C1   11 d         -14.687 206.580 114.081  0.00  0.00     0.061 C 
ATOM      2  N2   11 d         -13.736 206.851 114.955  0.00  0.00    -0.175 NA
ATOM      3  C15  11 d         -15.834 205.764 114.618  0.00  0.00     0.073 C 
ENDROOT
BRANCH   2   4
ATOM      4  N3   11 d         -12.666 207.767 114.868  0.00  0.00    -0.228 N 
ATOM      5  C8   11 d         -11.313 207.594 114.417  0.00  0.00     0.341 C 
ATOM      6  O3   11 d         -10.889 206.471 113.990  0.00  0.00    -0.245 OA
ATOM      7  N4   11 d         -10.453 208.738 114.465  0.00  0.00    -0.308 N 
ATOM      8  H6   11 d         -10.890 209.646 114.834  0.00  0.00     0.170 HD
ATOM      9  H5   11 d         -12.942 208.750 115.196  0.00  0.00     0.194 HD
BRANCH   7  10
ATOM     10  C9   11 d          -9.029 208.820 114.069  0.00  0.00     0.036 A 
ATOM     11  C10  11 d          -8.730 208.575 112.709  0.00  0.00     0.029 A 
ATOM     12  C11  11 d          -7.413 208.638 112.232  0.00  0.00     0.002 A 
ATOM     13  C12  11 d          -6.367 208.952 113.106  0.00  0.00     0.000 A 
ATOM     14  C13  11 d          -6.639 209.198 114.458  0.00  0.00     0.002 A 
ATOM     15  C14  11 d          -7.957 209.130 114.940  0.00  0.00     0.029 A 
ENDBRANCH   7  10
ENDBRANCH   2   4
BRANCH   1  16
ATOM     16  C2   11 d         -14.633 206.787 112.607  0.00  0.00    -0.008 A 
ATOM     17  C3   11 d         -13.399 206.965 111.946  0.00  0.00     0.049 A 
ATOM     18  C4   11 d         -13.336 207.127 110.540  0.00  0.00     0.103 A 
ATOM     19  C5   11 d         -14.543 207.062 109.806  0.00  0.00     0.036 A 
ATOM     20  C6   11 d         -15.768 206.855 110.452  0.00  0.00     0.003 A 
ATOM     21  C7   11 d         -15.814 206.720 111.845  0.00  0.00     0.013 A 
BRANCH  18  22
ATOM     22  N1   11 d         -12.117 207.333 109.887  0.00  0.00    -0.116 N 
ATOM     23  O1   11 d         -11.132 207.047 110.397  0.00  0.00    -0.532 OA
ATOM     24  O2   11 d         -12.059 208.028 108.836  0.00  0.00    -0.532 OA
ENDBRANCH  18  22
ENDBRANCH   1  16
TORSDOF 4
ENDMDL
MODEL 7
REMARK VINA RESULT:      -8.1      3.519      7.250
REMARK  4 active torsions:
REMARK  status: ('A' for Active; 'I' for Inactive)
REMARK    1  A    between atoms: C1_1  and  C2_2 
REMARK    2  A    between atoms: C4_4  and  N1_5 
REMARK    3  A    between atoms: N2_11  and  N3_12 
REMARK       I    between atoms: N3_12  and  C8_13 
REMARK       I    between atoms: C8_13  and  N4_15 
REMARK    4  A    between atoms: N4_15  and  C9_16 
ROOT
ATOM      1  C1   11 d         -10.386 208.060 116.627  0.00  0.00     0.061 C 
ATOM      2  N2   11 d         -11.563 207.464 116.661  0.00  0.00    -0.175 NA
ATOM      3  C15  11 d          -9.844 208.480 117.968  0.00  0.00     0.073 C 
ENDROOT
BRANCH   2   4
ATOM      4  N3   11 d         -12.240 206.744 115.653  0.00  0.00    -0.228 N 
ATOM      5  C8   11 d         -13.232 207.163 114.702  0.00  0.00     0.341 C 
ATOM      6  O3   11 d         -13.646 208.367 114.654  0.00  0.00    -0.245 OA
ATOM      7  N4   11 d         -13.739 206.172 113.802  0.00  0.00    -0.308 N 
ATOM      8  H6   11 d         -13.333 205.183 113.906  0.00  0.00     0.170 HD
ATOM      9  H5   11 d         -11.937 205.716 115.612  0.00  0.00     0.194 HD
BRANCH   7  10
ATOM     10  C9   11 d         -14.761 206.343 112.745  0.00  0.00     0.036 A 
ATOM     11  C10  11 d         -14.319 206.869 111.510  0.00  0.00     0.029 A 
ATOM     12  C11  11 d         -15.206 207.061 110.442  0.00  0.00     0.002 A 
ATOM     13  C12  11 d         -16.557 206.725 110.587  0.00  0.00     0.000 A 
ATOM     14  C13  11 d         -17.019 206.203 111.802  0.00  0.00     0.002 A 
ATOM     15  C14  11 d         -16.132 206.015 112.875  0.00  0.00     0.029 A 
ENDBRANCH   7  10
ENDBRANCH   2   4
BRANCH   1  16
ATOM     16  C2   11 d          -9.671 208.558 115.419  0.00  0.00    -0.008 A 
ATOM     17  C3   11 d          -8.389 209.140 115.526  0.00  0.00     0.049 A 
ATOM     18  C4   11 d          -7.686 209.583 114.379  0.00  0.00     0.103 A 
ATOM     19  C5   11 d          -8.285 209.389 113.113  0.00  0.00     0.036 A 
ATOM     20  C6   11 d          -9.543 208.785 112.997  0.00  0.00     0.003 A 
ATOM     21  C7   11 d         -10.233 208.373 114.143  0.00  0.00     0.013 A 
BRANCH  18  22
ATOM     22  N1   11 d          -6.429 210.186 114.487  0.00  0.00    -0.116 N 
ATOM     23  O1   11 d          -6.275 211.086 115.179  0.00  0.00    -0.532 OA
ATOM     24  O2   11 d          -5.507 209.902 113.674  0.00  0.00    -0.532 OA
ENDBRANCH  18  22
ENDBRANCH   1  16
TORSDOF 4
ENDMDL
MODEL 8
REMARK VINA RESULT:      -8.0      4.116      6.264
REMARK  4 active torsions:
REMARK  status: ('A' for Active; 'I' for Inactive)
REMARK    1  A    between atoms: C1_1  and  C2_2 
REMARK    2  A    between atoms: C4_4  and  N1_5 
REMARK    3  A    between atoms: N2_11  and  N3_12 
REMARK       I    between atoms: N3_12  and  C8_13 
REMARK       I    between atoms: C8_13  and  N4_15 
REMARK    4  A    between atoms: N4_15  and  C9_16 
ROOT
ATOM      1  C1   11 d         -12.769 207.023 112.376  0.00  0.00     0.061 C 
ATOM      2  N2   11 d         -11.530 207.299 112.012  0.00  0.00    -0.175 NA
ATOM      3  C15  11 d         -13.730 206.786 111.241  0.00  0.00     0.073 C 
ENDROOT
BRANCH   2   4
ATOM      4  N3   11 d         -10.351 207.337 112.785  0.00  0.00    -0.228 N 
ATOM      5  C8   11 d          -9.279 208.294 112.821  0.00  0.00     0.341 C 
ATOM      6  O3   11 d          -9.284 209.332 112.083  0.00  0.00    -0.245 OA
ATOM      7  N4   11 d          -8.198 208.037 113.724  0.00  0.00    -0.308 N 
ATOM      8  H6   11 d          -8.274 207.142 114.314  0.00  0.00     0.170 HD
ATOM      9  H5   11 d         -10.272 206.501 113.453  0.00  0.00     0.194 HD
BRANCH   7  10
ATOM     10  C9   11 d          -6.984 208.854 113.943  0.00  0.00     0.036 A 
ATOM     11  C10  11 d          -5.840 208.512 113.187  0.00  0.00     0.029 A 
ATOM     12  C11  11 d          -4.643 209.231 113.313  0.00  0.00     0.002 A 
ATOM     13  C12  11 d          -4.567 210.313 114.198  0.00  0.00     0.000 A 
ATOM     14  C13  11 d          -5.688 210.670 114.959  0.00  0.00     0.002 A 
ATOM     15  C14  11 d          -6.887 209.948 114.838  0.00  0.00     0.029 A 
ENDBRANCH   7  10
ENDBRANCH   2   4
BRANCH   1  16
ATOM     16  C2   11 d         -13.350 207.153 113.741  0.00  0.00    -0.008 A 
ATOM     17  C3   11 d         -13.072 206.196 114.740  0.00  0.00     0.049 A 
ATOM     18  C4   11 d         -13.591 206.330 116.051  0.00  0.00     0.103 A 
ATOM     19  C5   11 d         -14.366 207.476 116.348  0.00  0.00     0.036 A 
ATOM     20  C6   11 d         -14.621 208.445 115.369  0.00  0.00     0.003 A 
ATOM     21  C7   11 d         -14.118 208.285 114.073  0.00  0.00     0.013 A 
BRANCH  18  22
ATOM     22  N1   11 d         -13.340 205.368 117.033  0.00  0.00    -0.116 N 
ATOM     23  O1   11 d         -12.603 204.514 116.833  0.00  0.00    -0.532 OA
ATOM     24  O2   11 d         -14.070 205.289 118.059  0.00  0.00    -0.532 OA
ENDBRANCH  18  22
ENDBRANCH   1  16
TORSDOF 4
ENDMDL
MODEL 9
REMARK VINA RESULT:      -7.9      4.257      5.544
REMARK  4 active torsions:
REMARK  status: ('A' for Active; 'I' for Inactive)
REMARK    1  A    between atoms: C1_1  and  C2_2 
REMARK    2  A    between atoms: C4_4  and  N1_5 
REMARK    3  A    between atoms: N2_11  and  N3_12 
REMARK       I    between atoms: N3_12  and  C8_13 
REMARK       I    between atoms: C8_13  and  N4_15 
REMARK    4  A    between atoms: N4_15  and  C9_16 
ROOT
ATOM      1  C1   11 d         -10.224 207.952 111.653  0.00  0.00     0.061 C 
ATOM      2  N2   11 d          -9.041 208.402 112.026  0.00  0.00    -0.175 NA
ATOM      3  C15  11 d         -10.601 208.253 110.226  0.00  0.00     0.073 C 
ENDROOT
BRANCH   2   4
ATOM      4  N3   11 d          -8.284 208.103 113.179  0.00  0.00    -0.228 N 
ATOM      5  C8   11 d          -7.897 208.928 114.291  0.00  0.00     0.341 C 
ATOM      6  O3   11 d          -8.241 210.152 114.368  0.00  0.00    -0.245 OA
ATOM      7  N4   11 d          -7.105 208.318 115.316  0.00  0.00    -0.308 N 
ATOM      8  H6   11 d          -6.862 207.282 115.177  0.00  0.00     0.170 HD
ATOM      9  H5   11 d          -7.964 207.080 113.205  0.00  0.00     0.194 HD
BRANCH   7  10
ATOM     10  C9   11 d          -6.575 208.946 116.548  0.00  0.00     0.036 A 
ATOM     11  C10  11 d          -7.043 208.431 117.778  0.00  0.00     0.029 A 
ATOM     12  C11  11 d          -6.595 208.950 119.000  0.00  0.00     0.002 A 
ATOM     13  C12  11 d          -5.664 209.995 119.018  0.00  0.00     0.000 A 
ATOM     14  C13  11 d          -5.187 210.522 117.811  0.00  0.00     0.002 A 
ATOM     15  C14  11 d          -5.638 210.007 116.584  0.00  0.00     0.029 A 
ENDBRANCH   7  10
ENDBRANCH   2   4
BRANCH   1  16
ATOM     16  C2   11 d         -11.291 207.403 112.535  0.00  0.00    -0.008 A 
ATOM     17  C3   11 d         -11.384 207.795 113.888  0.00  0.00     0.049 A 
ATOM     18  C4   11 d         -12.417 207.306 114.725  0.00  0.00     0.103 A 
ATOM     19  C5   11 d         -13.383 206.441 114.157  0.00  0.00     0.036 A 
ATOM     20  C6   11 d         -13.313 206.072 112.808  0.00  0.00     0.003 A 
ATOM     21  C7   11 d         -12.273 206.548 112.001  0.00  0.00     0.013 A 
BRANCH  18  22
ATOM     22  N1   11 d         -12.494 207.671 116.072  0.00  0.00    -0.116 N 
ATOM     23  O1   11 d         -13.513 207.778 116.586  0.00  0.00    -0.532 OA
ATOM     24  O2   11 d         -11.477 208.099 116.682  0.00  0.00    -0.532 OA
ENDBRANCH  18  22
ENDBRANCH   1  16
TORSDOF 4
ENDMDL
MODEL 10
REMARK VINA RESULT:      -7.8      4.049      5.851
REMARK  4 active torsions:
REMARK  status: ('A' for Active; 'I' for Inactive)
REMARK    1  A    between atoms: C1_1  and  C2_2 
REMARK    2  A    between atoms: C4_4  and  N1_5 
REMARK    3  A    between atoms: N2_11  and  N3_12 
REMARK       I    between atoms: N3_12  and  C8_13 
REMARK       I    between atoms: C8_13  and  N4_15 
REMARK    4  A    between atoms: N4_15  and  C9_16 
ROOT
ATOM      1  C1   11 d         -13.150 208.282 114.979  0.00  0.00     0.061 C 
ATOM      2  N2   11 d         -12.264 208.247 115.956  0.00  0.00    -0.175 NA
ATOM      3  C15  11 d         -14.500 208.831 115.361  0.00  0.00     0.073 C 
ENDROOT
BRANCH   2   4
ATOM      4  N3   11 d         -10.871 208.028 115.902  0.00  0.00    -0.228 N 
ATOM      5  C8   11 d          -9.812 208.827 115.348  0.00  0.00     0.341 C 
ATOM      6  O3   11 d         -10.043 209.950 114.793  0.00  0.00    -0.245 OA
ATOM      7  N4   11 d          -8.480 208.312 115.445  0.00  0.00    -0.308 N 
ATOM      8  H6   11 d          -8.372 207.360 115.932  0.00  0.00     0.170 HD
ATOM      9  H5   11 d         -10.584 207.104 116.364  0.00  0.00     0.194 HD
BRANCH   7  10
ATOM     10  C9   11 d          -7.229 208.931 114.952  0.00  0.00     0.036 A 
ATOM     11  C10  11 d          -6.672 208.388 113.771  0.00  0.00     0.029 A 
ATOM     12  C11  11 d          -5.494 208.910 113.217  0.00  0.00     0.002 A 
ATOM     13  C12  11 d          -4.852 209.991 113.831  0.00  0.00     0.000 A 
ATOM     14  C13  11 d          -5.385 210.544 115.002  0.00  0.00     0.002 A 
ATOM     15  C14  11 d          -6.562 210.020 115.562  0.00  0.00     0.029 A 
ENDBRANCH   7  10
ENDBRANCH   2   4
BRANCH   1  16
ATOM     16  C2   11 d         -13.035 207.636 113.642  0.00  0.00    -0.008 A 
ATOM     17  C3   11 d         -14.159 207.517 112.797  0.00  0.00     0.049 A 
ATOM     18  C4   11 d         -14.051 206.936 111.509  0.00  0.00     0.103 A 
ATOM     19  C5   11 d         -12.773 206.513 111.072  0.00  0.00     0.036 A 
ATOM     20  C6   11 d         -11.648 206.656 111.895  0.00  0.00     0.003 A 
ATOM     21  C7   11 d         -11.778 207.212 113.173  0.00  0.00     0.013 A 
BRANCH  18  22
ATOM     22  N1   11 d         -15.168 206.791 110.682  0.00  0.00    -0.116 N 
ATOM     23  O1   11 d         -15.987 206.034 110.942  0.00  0.00    -0.532 OA
ATOM     24  O2   11 d         -15.195 207.320 109.537  0.00  0.00    -0.532 OA
ENDBRANCH  18  22
ENDBRANCH   1  16
TORSDOF 4
ENDMDL
