MODEL 1
REMARK VINA RESULT:      -6.7      0.000      0.000
REMARK  4 active torsions:
REMARK  status: ('A' for Active; 'I' for Inactive)
REMARK    1  A    between atoms: C1_1  and  C12_13 
REMARK    2  A    between atoms: C3_3  and  C9_9 
REMARK    3  A    between atoms: C9_9  and  O1_10 
REMARK    4  A    between atoms: N1_14  and  O2_15 
ROOT
ATOM      1  C1   11 d           6.875  47.353  54.306  0.00  0.00    -0.004 A 
ATOM      2  C2   11 d           6.632  46.439  53.237  0.00  0.00    -0.041 A 
ATOM      3  C3   11 d           7.732  45.881  52.514  0.00  0.00    -0.022 A 
ATOM      4  C4   11 d           9.058  46.258  52.867  0.00  0.00    -0.052 A 
ATOM      5  C5   11 d           9.266  47.202  53.885  0.00  0.00     0.015 A 
ATOM      6  C6   11 d           8.199  47.758  54.603  0.00  0.00    -0.049 A 
ATOM      7  C7   11 d           8.525  48.664  55.771  0.00  0.00     0.049 C 
ATOM      8  C8   11 d          10.272  45.837  52.066  0.00  0.00     0.049 C 
ATOM      9  C11  11 d           5.212  46.235  52.733  0.00  0.00     0.050 C 
ENDROOT
BRANCH   1  10
ATOM     10  C12  11 d           5.760  47.951  55.110  0.00  0.00     0.158 C 
ATOM     11  N1   11 d           5.175  47.391  56.145  0.00  0.00    -0.148 NA
BRANCH  11  12
ATOM     12  O2   11 d           5.683  46.226  56.506  0.00  0.00    -0.266 OA
ATOM     13  H17  11 d           5.309  45.733  57.301  0.00  0.00     0.247 HD
ENDBRANCH  11  12
ENDBRANCH   1  10
BRANCH   3  14
ATOM     14  C9   11 d           7.505  44.782  51.478  0.00  0.00     0.206 C 
BRANCH  14  15
ATOM     15  O1   11 d           7.403  45.330  50.136  0.00  0.00    -0.391 OA
ATOM     16  C10  11 d           7.442  44.286  49.131  0.00  0.00     0.201 C 
ENDBRANCH  14  15
ENDBRANCH   3  14
TORSDOF 4
ENDMDL
MODEL 2
REMARK VINA RESULT:      -6.5      2.331      3.549
REMARK  4 active torsions:
REMARK  status: ('A' for Active; 'I' for Inactive)
REMARK    1  A    between atoms: C1_1  and  C12_13 
REMARK    2  A    between atoms: C3_3  and  C9_9 
REMARK    3  A    between atoms: C9_9  and  O1_10 
REMARK    4  A    between atoms: N1_14  and  O2_15 
ROOT
ATOM      1  C1   11 d           7.536  46.397  53.207  0.00  0.00    -0.004 A 
ATOM      2  C2   11 d           6.187  45.989  52.988  0.00  0.00    -0.041 A 
ATOM      3  C3   11 d           5.879  45.088  51.922  0.00  0.00    -0.022 A 
ATOM      4  C4   11 d           6.930  44.620  51.084  0.00  0.00    -0.052 A 
ATOM      5  C5   11 d           8.240  45.081  51.286  0.00  0.00     0.015 A 
ATOM      6  C6   11 d           8.557  45.964  52.327  0.00  0.00    -0.049 A 
ATOM      7  C7   11 d          10.016  46.301  52.551  0.00  0.00     0.049 C 
ATOM      8  C8   11 d           6.682  43.786  49.844  0.00  0.00     0.049 C 
ATOM      9  C11  11 d           5.062  46.679  53.745  0.00  0.00     0.050 C 
ENDROOT
BRANCH   1  10
ATOM     10  C12  11 d           7.916  47.323  54.324  0.00  0.00     0.158 C 
ATOM     11  N1   11 d           8.043  48.627  54.230  0.00  0.00    -0.148 NA
BRANCH  11  12
ATOM     12  O2   11 d           7.747  49.128  53.044  0.00  0.00    -0.266 OA
ATOM     13  H17  11 d           6.964  48.770  52.521  0.00  0.00     0.247 HD
ENDBRANCH  11  12
ENDBRANCH   1  10
BRANCH   3  14
ATOM     14  C9   11 d           4.473  44.513  51.769  0.00  0.00     0.206 C 
BRANCH  14  15
ATOM     15  O1   11 d           4.351  43.225  52.432  0.00  0.00    -0.391 OA
ATOM     16  C10  11 d           3.391  43.274  53.518  0.00  0.00     0.201 C 
ENDBRANCH  14  15
ENDBRANCH   3  14
TORSDOF 4
ENDMDL
MODEL 3
REMARK VINA RESULT:      -6.4      2.142      4.147
REMARK  4 active torsions:
REMARK  status: ('A' for Active; 'I' for Inactive)
REMARK    1  A    between atoms: C1_1  and  C12_13 
REMARK    2  A    between atoms: C3_3  and  C9_9 
REMARK    3  A    between atoms: C9_9  and  O1_10 
REMARK    4  A    between atoms: N1_14  and  O2_15 
ROOT
ATOM      1  C1   11 d           4.958  45.108  52.643  0.00  0.00    -0.004 A 
ATOM      2  C2   11 d           6.094  45.951  52.827  0.00  0.00    -0.041 A 
ATOM      3  C3   11 d           7.265  45.751  52.033  0.00  0.00    -0.022 A 
ATOM      4  C4   11 d           7.283  44.699  51.075  0.00  0.00    -0.052 A 
ATOM      5  C5   11 d           6.173  43.849  50.953  0.00  0.00     0.015 A 
ATOM      6  C6   11 d           5.017  44.032  51.724  0.00  0.00    -0.049 A 
ATOM      7  C7   11 d           3.821  43.152  51.430  0.00  0.00     0.049 C 
ATOM      8  C8   11 d           8.525  44.318  50.296  0.00  0.00     0.049 C 
ATOM      9  C11  11 d           6.133  46.908  54.009  0.00  0.00     0.050 C 
ENDROOT
BRANCH   1  10
ATOM     10  C12  11 d           3.697  45.288  53.434  0.00  0.00     0.158 C 
ATOM     11  N1   11 d           3.400  44.671  54.556  0.00  0.00    -0.148 NA
BRANCH  11  12
ATOM     12  O2   11 d           4.347  43.874  55.018  0.00  0.00    -0.266 OA
ATOM     13  H17  11 d           4.387  42.910  54.728  0.00  0.00     0.247 HD
ENDBRANCH  11  12
ENDBRANCH   1  10
BRANCH   3  14
ATOM     14  C9   11 d           8.428  46.738  52.099  0.00  0.00     0.206 C 
BRANCH  14  15
ATOM     15  O1   11 d           9.519  46.222  52.910  0.00  0.00    -0.391 OA
ATOM     16  C10  11 d           9.676  46.981  54.135  0.00  0.00     0.201 C 
ENDBRANCH  14  15
ENDBRANCH   3  14
TORSDOF 4
ENDMDL
MODEL 4
REMARK VINA RESULT:      -6.3      2.484      5.572
REMARK  4 active torsions:
REMARK  status: ('A' for Active; 'I' for Inactive)
REMARK    1  A    between atoms: C1_1  and  C12_13 
REMARK    2  A    between atoms: C3_3  and  C9_9 
REMARK    3  A    between atoms: C9_9  and  O1_10 
REMARK    4  A    between atoms: N1_14  and  O2_15 
ROOT
ATOM      1  C1   11 d           7.071  44.894  51.652  0.00  0.00    -0.004 A 
ATOM      2  C2   11 d           7.586  46.019  52.362  0.00  0.00    -0.041 A 
ATOM      3  C3   11 d           6.732  46.763  53.234  0.00  0.00    -0.022 A 
ATOM      4  C4   11 d           5.371  46.374  53.371  0.00  0.00    -0.052 A 
ATOM      5  C5   11 d           4.875  45.297  52.618  0.00  0.00     0.015 A 
ATOM      6  C6   11 d           5.699  44.558  51.759  0.00  0.00    -0.049 A 
ATOM      7  C7   11 d           5.112  43.333  51.092  0.00  0.00     0.049 C 
ATOM      8  C8   11 d           4.359  47.186  54.151  0.00  0.00     0.049 C 
ATOM      9  C11  11 d           8.971  46.550  52.022  0.00  0.00     0.050 C 
ENDROOT
BRANCH   1  10
ATOM     10  C12  11 d           7.928  44.066  50.742  0.00  0.00     0.158 C 
ATOM     11  N1   11 d           8.012  44.197  49.437  0.00  0.00    -0.148 NA
BRANCH  11  12
ATOM     12  O2   11 d           7.303  45.192  48.934  0.00  0.00    -0.266 OA
ATOM     13  H17  11 d           7.585  46.147  49.088  0.00  0.00     0.247 HD
ENDBRANCH  11  12
ENDBRANCH   1  10
BRANCH   3  14
ATOM     14  C9   11 d           7.300  47.867  54.124  0.00  0.00     0.206 C 
BRANCH  14  15
ATOM     15  O1   11 d           7.853  47.326  55.354  0.00  0.00    -0.391 OA
ATOM     16  C10  11 d           9.224  47.752  55.553  0.00  0.00     0.201 C 
ENDBRANCH  14  15
ENDBRANCH   3  14
TORSDOF 4
ENDMDL
MODEL 5
REMARK VINA RESULT:      -6.2      2.233      4.133
REMARK  4 active torsions:
REMARK  status: ('A' for Active; 'I' for Inactive)
REMARK    1  A    between atoms: C1_1  and  C12_13 
REMARK    2  A    between atoms: C3_3  and  C9_9 
REMARK    3  A    between atoms: C9_9  and  O1_10 
REMARK    4  A    between atoms: N1_14  and  O2_15 
ROOT
ATOM      1  C1   11 d           5.467  46.018  53.675  0.00  0.00    -0.004 A 
ATOM      2  C2   11 d           6.360  46.896  54.357  0.00  0.00    -0.041 A 
ATOM      3  C3   11 d           7.697  47.063  53.880  0.00  0.00    -0.022 A 
ATOM      4  C4   11 d           8.121  46.336  52.733  0.00  0.00    -0.052 A 
ATOM      5  C5   11 d           7.239  45.437  52.113  0.00  0.00     0.015 A 
ATOM      6  C6   11 d           5.926  45.262  52.569  0.00  0.00    -0.049 A 
ATOM      7  C7   11 d           5.006  44.373  51.759  0.00  0.00     0.049 C 
ATOM      8  C8   11 d           9.555  46.334  52.245  0.00  0.00     0.049 C 
ATOM      9  C11  11 d           5.958  47.477  55.704  0.00  0.00     0.050 C 
ENDROOT
BRANCH   1  10
ATOM     10  C12  11 d           4.048  45.824  54.119  0.00  0.00     0.158 C 
ATOM     11  N1   11 d           3.627  44.908  54.962  0.00  0.00    -0.148 NA
BRANCH  11  12
ATOM     12  O2   11 d           4.579  44.150  55.479  0.00  0.00    -0.266 OA
ATOM     13  H17  11 d           4.370  43.514  56.231  0.00  0.00     0.247 HD
ENDBRANCH  11  12
ENDBRANCH   1  10
BRANCH   3  14
ATOM     14  C9   11 d           8.618  48.115  54.495  0.00  0.00     0.206 C 
BRANCH  14  15
ATOM     15  O1   11 d           9.527  47.526  55.464  0.00  0.00    -0.391 OA
ATOM     16  C10  11 d           9.541  48.277  56.704  0.00  0.00     0.201 C 
ENDBRANCH  14  15
ENDBRANCH   3  14
TORSDOF 4
ENDMDL
MODEL 6
REMARK VINA RESULT:      -6.2      1.660      2.233
REMARK  4 active torsions:
REMARK  status: ('A' for Active; 'I' for Inactive)
REMARK    1  A    between atoms: C1_1  and  C12_13 
REMARK    2  A    between atoms: C3_3  and  C9_9 
REMARK    3  A    between atoms: C9_9  and  O1_10 
REMARK    4  A    between atoms: N1_14  and  O2_15 
ROOT
ATOM      1  C1   11 d           6.779  46.336  52.967  0.00  0.00    -0.004 A 
ATOM      2  C2   11 d           6.104  45.506  52.024  0.00  0.00    -0.041 A 
ATOM      3  C3   11 d           6.857  44.768  51.059  0.00  0.00    -0.022 A 
ATOM      4  C4   11 d           8.275  44.884  51.047  0.00  0.00    -0.052 A 
ATOM      5  C5   11 d           8.910  45.751  51.950  0.00  0.00     0.015 A 
ATOM      6  C6   11 d           8.186  46.481  52.902  0.00  0.00    -0.049 A 
ATOM      7  C7   11 d           8.964  47.287  53.921  0.00  0.00     0.049 C 
ATOM      8  C8   11 d           9.142  44.261  49.974  0.00  0.00     0.049 C 
ATOM      9  C11  11 d           4.589  45.580  51.908  0.00  0.00     0.050 C 
ENDROOT
BRANCH   1  10
ATOM     10  C12  11 d           6.039  47.115  54.014  0.00  0.00     0.158 C 
ATOM     11  N1   11 d           5.602  46.639  55.158  0.00  0.00    -0.148 NA
BRANCH  11  12
ATOM     12  O2   11 d           5.911  45.375  55.387  0.00  0.00    -0.266 OA
ATOM     13  H17  11 d           6.559  45.134  56.119  0.00  0.00     0.247 HD
ENDBRANCH  11  12
ENDBRANCH   1  10
BRANCH   3  14
ATOM     14  C9   11 d           6.172  43.751  50.148  0.00  0.00     0.206 C 
BRANCH  14  15
ATOM     15  O1   11 d           6.232  42.411  50.707  0.00  0.00    -0.391 OA
ATOM     16  C10  11 d           5.270  41.528  50.076  0.00  0.00     0.201 C 
ENDBRANCH  14  15
ENDBRANCH   3  14
TORSDOF 4
ENDMDL
MODEL 7
REMARK VINA RESULT:      -6.2      3.149      5.506
REMARK  4 active torsions:
REMARK  status: ('A' for Active; 'I' for Inactive)
REMARK    1  A    between atoms: C1_1  and  C12_13 
REMARK    2  A    between atoms: C3_3  and  C9_9 
REMARK    3  A    between atoms: C9_9  and  O1_10 
REMARK    4  A    between atoms: N1_14  and  O2_15 
ROOT
ATOM      1  C1   11 d           5.496  43.586  50.928  0.00  0.00    -0.004 A 
ATOM      2  C2   11 d           6.595  44.477  50.749  0.00  0.00    -0.041 A 
ATOM      3  C3   11 d           6.859  45.487  51.726  0.00  0.00    -0.022 A 
ATOM      4  C4   11 d           6.009  45.593  52.862  0.00  0.00    -0.052 A 
ATOM      5  C5   11 d           4.902  44.739  52.986  0.00  0.00     0.015 A 
ATOM      6  C6   11 d           4.629  43.745  52.037  0.00  0.00    -0.049 A 
ATOM      7  C7   11 d           3.493  42.785  52.321  0.00  0.00     0.049 C 
ATOM      8  C8   11 d           6.120  46.719  53.869  0.00  0.00     0.049 C 
ATOM      9  C11  11 d           7.340  44.493  49.423  0.00  0.00     0.050 C 
ENDROOT
BRANCH   1  10
ATOM     10  C12  11 d           5.187  42.496  49.945  0.00  0.00     0.158 C 
ATOM     11  N1   11 d           5.809  41.343  49.858  0.00  0.00    -0.148 NA
BRANCH  11  12
ATOM     12  O2   11 d           6.746  41.147  50.770  0.00  0.00    -0.266 OA
ATOM     13  H17  11 d           7.127  40.227  50.917  0.00  0.00     0.247 HD
ENDBRANCH  11  12
ENDBRANCH   1  10
BRANCH   3  14
ATOM     14  C9   11 d           8.120  46.344  51.639  0.00  0.00     0.206 C 
BRANCH  14  15
ATOM     15  O1   11 d           9.236  45.721  52.331  0.00  0.00    -0.391 OA
ATOM     16  C10  11 d           9.770  46.586  53.364  0.00  0.00     0.201 C 
ENDBRANCH  14  15
ENDBRANCH   3  14
TORSDOF 4
ENDMDL
MODEL 8
REMARK VINA RESULT:      -6.0      2.356      4.740
REMARK  4 active torsions:
REMARK  status: ('A' for Active; 'I' for Inactive)
REMARK    1  A    between atoms: C1_1  and  C12_13 
REMARK    2  A    between atoms: C3_3  and  C9_9 
REMARK    3  A    between atoms: C9_9  and  O1_10 
REMARK    4  A    between atoms: N1_14  and  O2_15 
ROOT
ATOM      1  C1   11 d           7.629  46.379  52.495  0.00  0.00    -0.004 A 
ATOM      2  C2   11 d           6.491  46.806  53.241  0.00  0.00    -0.041 A 
ATOM      3  C3   11 d           5.257  46.094  53.128  0.00  0.00    -0.022 A 
ATOM      4  C4   11 d           5.181  44.970  52.259  0.00  0.00    -0.052 A 
ATOM      5  C5   11 d           6.300  44.605  51.494  0.00  0.00     0.015 A 
ATOM      6  C6   11 d           7.516  45.293  51.593  0.00  0.00    -0.049 A 
ATOM      7  C7   11 d           8.705  44.747  50.832  0.00  0.00     0.049 C 
ATOM      8  C8   11 d           3.884  44.247  51.962  0.00  0.00     0.049 C 
ATOM      9  C11  11 d           6.533  48.137  53.978  0.00  0.00     0.050 C 
ENDROOT
BRANCH   1  10
ATOM     10  C12  11 d           8.953  47.077  52.593  0.00  0.00     0.158 C 
ATOM     11  N1   11 d           9.776  47.022  53.616  0.00  0.00    -0.148 NA
BRANCH  11  12
ATOM     12  O2   11 d           9.387  46.228  54.597  0.00  0.00    -0.266 OA
ATOM     13  H17  11 d           8.411  46.149  54.833  0.00  0.00     0.247 HD
ENDBRANCH  11  12
ENDBRANCH   1  10
BRANCH   3  14
ATOM     14  C9   11 d           4.076  46.432  54.036  0.00  0.00     0.206 C 
BRANCH  14  15
ATOM     15  O1   11 d           3.920  45.448  55.094  0.00  0.00    -0.391 OA
ATOM     16  C10  11 d           4.642  45.833  56.290  0.00  0.00     0.201 C 
ENDBRANCH  14  15
ENDBRANCH   3  14
TORSDOF 4
ENDMDL
MODEL 9
REMARK VINA RESULT:      -6.0      2.302      4.595
REMARK  4 active torsions:
REMARK  status: ('A' for Active; 'I' for Inactive)
REMARK    1  A    between atoms: C1_1  and  C12_13 
REMARK    2  A    between atoms: C3_3  and  C9_9 
REMARK    3  A    between atoms: C9_9  and  O1_10 
REMARK    4  A    between atoms: N1_14  and  O2_15 
ROOT
ATOM      1  C1   11 d           5.890  44.881  52.360  0.00  0.00    -0.004 A 
ATOM      2  C2   11 d           5.942  45.362  53.702  0.00  0.00    -0.041 A 
ATOM      3  C3   11 d           7.040  46.173  54.126  0.00  0.00    -0.022 A 
ATOM      4  C4   11 d           8.076  46.478  53.200  0.00  0.00    -0.052 A 
ATOM      5  C5   11 d           8.029  45.946  51.902  0.00  0.00     0.015 A 
ATOM      6  C6   11 d           6.959  45.150  51.471  0.00  0.00    -0.049 A 
ATOM      7  C7   11 d           6.926  44.731  50.017  0.00  0.00     0.049 C 
ATOM      8  C8   11 d           9.347  47.200  53.597  0.00  0.00     0.049 C 
ATOM      9  C11  11 d           4.950  44.834  54.727  0.00  0.00     0.050 C 
ENDROOT
BRANCH   1  10
ATOM     10  C12  11 d           4.750  44.046  51.858  0.00  0.00     0.158 C 
ATOM     11  N1   11 d           3.545  44.485  51.573  0.00  0.00    -0.148 NA
BRANCH  11  12
ATOM     12  O2   11 d           3.384  45.790  51.703  0.00  0.00    -0.266 OA
ATOM     13  H17  11 d           3.679  46.257  52.546  0.00  0.00     0.247 HD
ENDBRANCH  11  12
ENDBRANCH   1  10
BRANCH   3  14
ATOM     14  C9   11 d           7.036  46.830  55.505  0.00  0.00     0.206 C 
BRANCH  14  15
ATOM     15  O1   11 d           6.450  48.160  55.457  0.00  0.00    -0.391 OA
ATOM     16  C10  11 d           5.085  48.157  55.946  0.00  0.00     0.201 C 
ENDBRANCH  14  15
ENDBRANCH   3  14
TORSDOF 4
ENDMDL
MODEL 10
REMARK VINA RESULT:      -5.9      2.753      5.810
REMARK  4 active torsions:
REMARK  status: ('A' for Active; 'I' for Inactive)
REMARK    1  A    between atoms: C1_1  and  C12_13 
REMARK    2  A    between atoms: C3_3  and  C9_9 
REMARK    3  A    between atoms: C9_9  and  O1_10 
REMARK    4  A    between atoms: N1_14  and  O2_15 
ROOT
ATOM      1  C1   11 d           6.615  44.804  51.078  0.00  0.00    -0.004 A 
ATOM      2  C2   11 d           6.908  45.690  52.157  0.00  0.00    -0.041 A 
ATOM      3  C3   11 d           6.106  45.660  53.340  0.00  0.00    -0.022 A 
ATOM      4  C4   11 d           5.016  44.749  53.417  0.00  0.00    -0.052 A 
ATOM      5  C5   11 d           4.715  43.928  52.319  0.00  0.00     0.015 A 
ATOM      6  C6   11 d           5.491  43.946  51.152  0.00  0.00    -0.049 A 
ATOM      7  C7   11 d           5.175  42.932  50.074  0.00  0.00     0.049 C 
ATOM      8  C8   11 d           4.025  44.748  54.562  0.00  0.00     0.049 C 
ATOM      9  C11  11 d           7.924  46.804  51.958  0.00  0.00     0.050 C 
ENDROOT
BRANCH   1  10
ATOM     10  C12  11 d           7.437  44.779  49.823  0.00  0.00     0.158 C 
ATOM     11  N1   11 d           8.503  44.039  49.619  0.00  0.00    -0.148 NA
BRANCH  11  12
ATOM     12  O2   11 d           8.809  43.221  50.611  0.00  0.00    -0.266 OA
ATOM     13  H17  11 d           8.166  43.086  51.375  0.00  0.00     0.247 HD
ENDBRANCH  11  12
ENDBRANCH   1  10
BRANCH   3  14
ATOM     14  C9   11 d           6.497  46.481  54.567  0.00  0.00     0.206 C 
BRANCH  14  15
ATOM     15  O1   11 d           5.775  47.741  54.615  0.00  0.00    -0.391 OA
ATOM     16  C10  11 d           5.285  48.022  55.951  0.00  0.00     0.201 C 
ENDBRANCH  14  15
ENDBRANCH   3  14
TORSDOF 4
ENDMDL
