MODEL 1
REMARK VINA RESULT:      -8.5      0.000      0.000
REMARK  5 active torsions:
REMARK  status: ('A' for Active; 'I' for Inactive)
REMARK    1  A    between atoms: C6_6  and  O1_7 
REMARK    2  A    between atoms: N1_21  and  C19_22 
REMARK    3  A    between atoms: C20_23  and  C21_24 
REMARK    4  A    between atoms: C21_24  and  O3_26 
REMARK    5  A    between atoms: O3_26  and  C22_27 
ROOT
ATOM      1  C1   11 d          -9.151 208.638 114.628  0.00  0.00     0.072 C 
ATOM      2  C2   11 d         -10.329 208.018 113.968  0.00  0.00    -0.000 A 
ATOM      3  C3   11 d         -10.454 208.129 112.560  0.00  0.00    -0.046 A 
ATOM      4  C4   11 d         -11.515 207.472 111.909  0.00  0.00     0.011 A 
ATOM      5  C5   11 d         -12.463 206.748 112.648  0.00  0.00     0.037 A 
ATOM      6  C6   11 d         -12.333 206.629 114.039  0.00  0.00     0.069 A 
ATOM      7  C8   11 d         -11.285 207.288 114.700  0.00  0.00     0.050 A 
ATOM      8  C9   11 d          -9.379 208.812 111.736  0.00  0.00     0.040 C 
ATOM      9  C10  11 d          -8.019 208.891 112.452  0.00  0.00     0.018 C 
ATOM     10  C11  11 d          -8.181 209.473 113.873  0.00  0.00     0.070 C 
ATOM     11  C12  11 d          -7.019 209.491 114.893  0.00  0.00     0.153 C 
ATOM     12  C13  11 d          -5.718 208.864 114.390  0.00  0.00    -0.033 A 
ATOM     13  C14  11 d          -5.152 207.697 114.958  0.00  0.00     0.012 A 
ATOM     14  C15  11 d          -3.950 207.168 114.464  0.00  0.00     0.043 A 
ATOM     15  C16  11 d          -3.292 207.793 113.397  0.00  0.00     0.116 A 
ATOM     16  F1   11 d          -2.125 207.275 112.916  0.00  0.00    -0.206 F 
ATOM     17  C17  11 d          -3.834 208.950 112.826  0.00  0.00     0.043 A 
ATOM     18  C18  11 d          -5.033 209.483 113.320  0.00  0.00     0.012 A 
ATOM     19  N1   11 d          -7.599 208.880 116.048  0.00  0.00    -0.264 N 
ATOM     20  N2   11 d          -8.805 208.384 115.848  0.00  0.00    -0.175 NA
ENDROOT
BRANCH  19  21
ATOM     21  C19  11 d          -7.003 208.775 117.332  0.00  0.00     0.033 C 
ATOM     22  C20  11 d          -6.145 209.734 117.794  0.00  0.00     0.108 C 
ATOM     23  C24  11 d          -7.281 207.536 118.167  0.00  0.00     0.070 C 
BRANCH  22  24
ATOM     24  C21  11 d          -5.429 209.789 119.097  0.00  0.00     0.284 C 
ATOM     25  O2   11 d          -4.308 209.227 119.187  0.00  0.00    -0.260 OA
BRANCH  24  26
ATOM     26  O3   11 d          -5.991 210.377 120.262  0.00  0.00    -0.318 OA
BRANCH  26  27
ATOM     27  C22  11 d          -6.275 211.777 120.022  0.00  0.00     0.174 C 
ATOM     28  C23  11 d          -5.274 212.617 120.798  0.00  0.00     0.034 C 
ENDBRANCH  26  27
ENDBRANCH  24  26
ENDBRANCH  22  24
ENDBRANCH  19  21
BRANCH   6  29
ATOM     29  O1   11 d         -13.327 205.942 114.786  0.00  0.00    -0.356 OA
ATOM     30  C7   11 d         -14.514 205.778 113.969  0.00  0.00     0.210 C 
ENDBRANCH   6  29
TORSDOF 5
ENDMDL
MODEL 2
REMARK VINA RESULT:      -8.4      5.073      7.259
REMARK  5 active torsions:
REMARK  status: ('A' for Active; 'I' for Inactive)
REMARK    1  A    between atoms: C6_6  and  O1_7 
REMARK    2  A    between atoms: N1_21  and  C19_22 
REMARK    3  A    between atoms: C20_23  and  C21_24 
REMARK    4  A    between atoms: C21_24  and  O3_26 
REMARK    5  A    between atoms: O3_26  and  C22_27 
ROOT
ATOM      1  C1   11 d         -12.989 207.294 115.505  0.00  0.00     0.072 C 
ATOM      2  C2   11 d         -12.891 206.944 114.065  0.00  0.00    -0.000 A 
ATOM      3  C3   11 d         -11.831 207.495 113.303  0.00  0.00    -0.046 A 
ATOM      4  C4   11 d         -11.671 207.104 111.960  0.00  0.00     0.011 A 
ATOM      5  C5   11 d         -12.576 206.210 111.368  0.00  0.00     0.037 A 
ATOM      6  C6   11 d         -13.619 205.656 112.125  0.00  0.00     0.069 A 
ATOM      7  C8   11 d         -13.793 206.046 113.461  0.00  0.00     0.050 A 
ATOM      8  C9   11 d         -10.780 208.374 113.955  0.00  0.00     0.040 C 
ATOM      9  C10  11 d         -10.691 208.189 115.481  0.00  0.00     0.018 C 
ATOM     10  C11  11 d         -12.089 208.298 116.128  0.00  0.00     0.070 C 
ATOM     11  C12  11 d         -12.334 207.965 117.618  0.00  0.00     0.153 C 
ATOM     12  C13  11 d         -11.094 207.494 118.380  0.00  0.00    -0.033 A 
ATOM     13  C14  11 d         -10.969 206.193 118.925  0.00  0.00     0.012 A 
ATOM     14  C15  11 d          -9.813 205.814 119.623  0.00  0.00     0.043 A 
ATOM     15  C16  11 d          -8.762 206.725 119.791  0.00  0.00     0.116 A 
ATOM     16  F1   11 d          -7.638 206.355 120.469  0.00  0.00    -0.206 F 
ATOM     17  C17  11 d          -8.870 208.018 119.264  0.00  0.00     0.043 A 
ATOM     18  C18  11 d         -10.025 208.400 118.568  0.00  0.00     0.012 A 
ATOM     19  N1   11 d         -13.420 207.037 117.563  0.00  0.00    -0.264 N 
ATOM     20  N2   11 d         -13.746 206.660 116.341  0.00  0.00    -0.175 NA
ENDROOT
BRANCH  19  21
ATOM     21  C19  11 d         -14.140 206.517 118.670  0.00  0.00     0.033 C 
ATOM     22  C20  11 d         -14.524 207.325 119.704  0.00  0.00     0.108 C 
ATOM     23  C24  11 d         -14.421 205.025 118.724  0.00  0.00     0.070 C 
BRANCH  22  24
ATOM     24  C21  11 d         -15.273 206.960 120.937  0.00  0.00     0.284 C 
ATOM     25  O2   11 d         -14.626 206.804 122.005  0.00  0.00    -0.260 OA
BRANCH  24  26
ATOM     26  O3   11 d         -16.671 206.704 120.944  0.00  0.00    -0.318 OA
BRANCH  26  27
ATOM     27  C22  11 d         -16.970 205.607 121.842  0.00  0.00     0.174 C 
ATOM     28  C23  11 d         -17.306 204.378 121.014  0.00  0.00     0.034 C 
ENDBRANCH  26  27
ENDBRANCH  24  26
ENDBRANCH  22  24
ENDBRANCH  19  21
BRANCH   6  29
ATOM     29  O1   11 d         -14.562 204.795 111.504  0.00  0.00    -0.356 OA
ATOM     30  C7   11 d         -15.879 205.400 111.567  0.00  0.00     0.210 C 
ENDBRANCH   6  29
TORSDOF 5
ENDMDL
MODEL 3
REMARK VINA RESULT:      -8.3      4.386      8.773
REMARK  5 active torsions:
REMARK  status: ('A' for Active; 'I' for Inactive)
REMARK    1  A    between atoms: C6_6  and  O1_7 
REMARK    2  A    between atoms: N1_21  and  C19_22 
REMARK    3  A    between atoms: C20_23  and  C21_24 
REMARK    4  A    between atoms: C21_24  and  O3_26 
REMARK    5  A    between atoms: O3_26  and  C22_27 
ROOT
ATOM      1  C1   11 d         -11.152 206.933 113.651  0.00  0.00     0.072 C 
ATOM      2  C2   11 d         -10.117 207.912 113.232  0.00  0.00    -0.000 A 
ATOM      3  C3   11 d          -9.838 208.056 111.850  0.00  0.00    -0.046 A 
ATOM      4  C4   11 d          -8.925 209.043 111.430  0.00  0.00     0.011 A 
ATOM      5  C5   11 d          -8.266 209.847 112.372  0.00  0.00     0.037 A 
ATOM      6  C6   11 d          -8.550 209.712 113.738  0.00  0.00     0.069 A 
ATOM      7  C8   11 d          -9.451 208.726 114.169  0.00  0.00     0.050 A 
ATOM      8  C9   11 d         -10.622 207.273 110.813  0.00  0.00     0.040 C 
ATOM      9  C10  11 d         -11.977 206.759 111.333  0.00  0.00     0.018 C 
ATOM     10  C11  11 d         -11.802 206.018 112.677  0.00  0.00     0.070 C 
ATOM     11  C12  11 d         -13.010 205.562 113.528  0.00  0.00     0.153 C 
ATOM     12  C13  11 d         -14.377 205.930 112.947  0.00  0.00    -0.033 A 
ATOM     13  C14  11 d         -15.272 206.824 113.583  0.00  0.00     0.012 A 
ATOM     14  C15  11 d         -16.518 207.120 113.011  0.00  0.00     0.043 A 
ATOM     15  C16  11 d         -16.894 206.531 111.798  0.00  0.00     0.116 A 
ATOM     16  F1   11 d         -18.105 206.822 111.242  0.00  0.00    -0.206 F 
ATOM     17  C17  11 d         -16.024 205.641 111.157  0.00  0.00     0.043 A 
ATOM     18  C18  11 d         -14.778 205.340 111.727  0.00  0.00     0.012 A 
ATOM     19  N1   11 d         -12.715 206.106 114.817  0.00  0.00    -0.264 N 
ATOM     20  N2   11 d         -11.663 206.902 114.839  0.00  0.00    -0.175 NA
ENDROOT
BRANCH  19  21
ATOM     21  C19  11 d         -13.433 205.863 116.017  0.00  0.00     0.033 C 
ATOM     22  C20  11 d         -13.870 204.607 116.337  0.00  0.00     0.108 C 
ATOM     23  C24  11 d         -13.773 207.040 116.916  0.00  0.00     0.070 C 
BRANCH  22  24
ATOM     24  C21  11 d         -14.634 204.168 117.536  0.00  0.00     0.284 C 
ATOM     25  O2   11 d         -15.629 203.417 117.369  0.00  0.00    -0.260 OA
BRANCH  24  26
ATOM     26  O3   11 d         -14.337 204.623 118.849  0.00  0.00    -0.318 OA
BRANCH  26  27
ATOM     27  C22  11 d         -15.301 204.088 119.789  0.00  0.00     0.174 C 
ATOM     28  C23  11 d         -15.059 204.724 121.148  0.00  0.00     0.034 C 
ENDBRANCH  26  27
ENDBRANCH  24  26
ENDBRANCH  22  24
ENDBRANCH  19  21
BRANCH   6  29
ATOM     29  O1   11 d          -7.838 210.492 114.688  0.00  0.00    -0.356 OA
ATOM     30  C7   11 d          -6.467 210.026 114.761  0.00  0.00     0.210 C 
ENDBRANCH   6  29
TORSDOF 5
ENDMDL
MODEL 4
REMARK VINA RESULT:      -8.2      1.289      1.657
REMARK  5 active torsions:
REMARK  status: ('A' for Active; 'I' for Inactive)
REMARK    1  A    between atoms: C6_6  and  O1_7 
REMARK    2  A    between atoms: N1_21  and  C19_22 
REMARK    3  A    between atoms: C20_23  and  C21_24 
REMARK    4  A    between atoms: C21_24  and  O3_26 
REMARK    5  A    between atoms: O3_26  and  C22_27 
ROOT
ATOM      1  C1   11 d          -8.980 208.693 114.759  0.00  0.00     0.072 C 
ATOM      2  C2   11 d         -10.183 208.100 114.120  0.00  0.00    -0.000 A 
ATOM      3  C3   11 d         -10.344 208.237 112.718  0.00  0.00    -0.046 A 
ATOM      4  C4   11 d         -11.431 207.605 112.084  0.00  0.00     0.011 A 
ATOM      5  C5   11 d         -12.368 206.881 112.836  0.00  0.00     0.037 A 
ATOM      6  C6   11 d         -12.203 206.736 114.221  0.00  0.00     0.069 A 
ATOM      7  C8   11 d         -11.129 207.370 114.865  0.00  0.00     0.050 A 
ATOM      8  C9   11 d          -9.282 208.921 111.877  0.00  0.00     0.040 C 
ATOM      9  C10  11 d          -7.902 208.970 112.559  0.00  0.00     0.018 C 
ATOM     10  C11  11 d          -8.019 209.528 113.993  0.00  0.00     0.070 C 
ATOM     11  C12  11 d          -6.831 209.514 114.982  0.00  0.00     0.153 C 
ATOM     12  C13  11 d          -5.551 208.879 114.434  0.00  0.00    -0.033 A 
ATOM     13  C14  11 d          -4.986 207.694 114.966  0.00  0.00     0.012 A 
ATOM     14  C15  11 d          -3.806 207.158 114.431  0.00  0.00     0.043 A 
ATOM     15  C16  11 d          -3.167 207.793 113.358  0.00  0.00     0.116 A 
ATOM     16  F1   11 d          -2.021 207.269 112.838  0.00  0.00    -0.206 F 
ATOM     17  C17  11 d          -3.708 208.967 112.822  0.00  0.00     0.043 A 
ATOM     18  C18  11 d          -4.887 209.507 113.356  0.00  0.00     0.012 A 
ATOM     19  N1   11 d          -7.388 208.890 116.141  0.00  0.00    -0.264 N 
ATOM     20  N2   11 d          -8.605 208.413 115.965  0.00  0.00    -0.175 NA
ENDROOT
BRANCH  19  21
ATOM     21  C19  11 d          -6.760 208.754 117.407  0.00  0.00     0.033 C 
ATOM     22  C20  11 d          -6.992 207.663 118.198  0.00  0.00     0.108 C 
ATOM     23  C24  11 d          -5.871 209.881 117.906  0.00  0.00     0.070 C 
BRANCH  22  24
ATOM     24  C21  11 d          -6.433 207.355 119.541  0.00  0.00     0.284 C 
ATOM     25  O2   11 d          -5.579 206.437 119.637  0.00  0.00    -0.260 OA
BRANCH  24  26
ATOM     26  O3   11 d          -6.878 207.997 120.728  0.00  0.00    -0.318 OA
BRANCH  26  27
ATOM     27  C22  11 d          -8.308 208.222 120.664  0.00  0.00     0.174 C 
ATOM     28  C23  11 d          -8.577 209.703 120.873  0.00  0.00     0.034 C 
ENDBRANCH  26  27
ENDBRANCH  24  26
ENDBRANCH  22  24
ENDBRANCH  19  21
BRANCH   6  29
ATOM     29  O1   11 d         -13.186 206.049 114.982  0.00  0.00    -0.356 OA
ATOM     30  C7   11 d         -12.567 205.481 116.164  0.00  0.00     0.210 C 
ENDBRANCH   6  29
TORSDOF 5
ENDMDL
MODEL 5
REMARK VINA RESULT:      -8.2      0.781      1.362
REMARK  5 active torsions:
REMARK  status: ('A' for Active; 'I' for Inactive)
REMARK    1  A    between atoms: C6_6  and  O1_7 
REMARK    2  A    between atoms: N1_21  and  C19_22 
REMARK    3  A    between atoms: C20_23  and  C21_24 
REMARK    4  A    between atoms: C21_24  and  O3_26 
REMARK    5  A    between atoms: O3_26  and  C22_27 
ROOT
ATOM      1  C1   11 d          -9.147 208.582 114.587  0.00  0.00     0.072 C 
ATOM      2  C2   11 d         -10.304 207.990 113.868  0.00  0.00    -0.000 A 
ATOM      3  C3   11 d         -10.383 208.149 112.462  0.00  0.00    -0.046 A 
ATOM      4  C4   11 d         -11.425 207.520 111.754  0.00  0.00     0.011 A 
ATOM      5  C5   11 d         -12.399 206.777 112.437  0.00  0.00     0.037 A 
ATOM      6  C6   11 d         -12.315 206.610 113.827  0.00  0.00     0.069 A 
ATOM      7  C8   11 d         -11.287 207.241 114.543  0.00  0.00     0.050 A 
ATOM      8  C9   11 d          -9.279 208.855 111.696  0.00  0.00     0.040 C 
ATOM      9  C10  11 d          -7.943 208.903 112.459  0.00  0.00     0.018 C 
ATOM     10  C11  11 d          -8.149 209.437 113.893  0.00  0.00     0.070 C 
ATOM     11  C12  11 d          -7.021 209.415 114.950  0.00  0.00     0.153 C 
ATOM     12  C13  11 d          -5.706 208.799 114.469  0.00  0.00    -0.033 A 
ATOM     13  C14  11 d          -5.164 207.610 115.015  0.00  0.00     0.012 A 
ATOM     14  C15  11 d          -3.949 207.092 114.543  0.00  0.00     0.043 A 
ATOM     15  C16  11 d          -3.253 207.749 113.520  0.00  0.00     0.116 A 
ATOM     16  F1   11 d          -2.073 207.243 113.061  0.00  0.00    -0.206 F 
ATOM     17  C17  11 d          -3.772 208.928 112.972  0.00  0.00     0.043 A 
ATOM     18  C18  11 d          -4.985 209.450 113.443  0.00  0.00     0.012 A 
ATOM     19  N1   11 d          -7.641 208.768 116.065  0.00  0.00    -0.264 N 
ATOM     20  N2   11 d          -8.841 208.285 115.808  0.00  0.00    -0.175 NA
ENDROOT
BRANCH  19  21
ATOM     21  C19  11 d          -7.088 208.617 117.363  0.00  0.00     0.033 C 
ATOM     22  C20  11 d          -6.314 209.596 117.920  0.00  0.00     0.108 C 
ATOM     23  C24  11 d          -7.313 207.310 118.105  0.00  0.00     0.070 C 
BRANCH  22  24
ATOM     24  C21  11 d          -5.653 209.611 119.253  0.00  0.00     0.284 C 
ATOM     25  O2   11 d          -6.249 210.170 120.209  0.00  0.00    -0.260 OA
BRANCH  24  26
ATOM     26  O3   11 d          -4.349 209.092 119.474  0.00  0.00    -0.318 OA
BRANCH  26  27
ATOM     27  C22  11 d          -3.384 209.820 118.675  0.00  0.00     0.174 C 
ATOM     28  C23  11 d          -2.790 208.871 117.647  0.00  0.00     0.034 C 
ENDBRANCH  26  27
ENDBRANCH  24  26
ENDBRANCH  22  24
ENDBRANCH  19  21
BRANCH   6  29
ATOM     29  O1   11 d         -13.335 205.903 114.517  0.00  0.00    -0.356 OA
ATOM     30  C7   11 d         -14.453 205.676 113.621  0.00  0.00     0.210 C 
ENDBRANCH   6  29
TORSDOF 5
ENDMDL
MODEL 6
REMARK VINA RESULT:      -7.8      1.899      2.274
REMARK  5 active torsions:
REMARK  status: ('A' for Active; 'I' for Inactive)
REMARK    1  A    between atoms: C6_6  and  O1_7 
REMARK    2  A    between atoms: N1_21  and  C19_22 
REMARK    3  A    between atoms: C20_23  and  C21_24 
REMARK    4  A    between atoms: C21_24  and  O3_26 
REMARK    5  A    between atoms: O3_26  and  C22_27 
ROOT
ATOM      1  C1   11 d          -8.525 208.796 114.792  0.00  0.00     0.072 C 
ATOM      2  C2   11 d          -9.574 208.437 113.803  0.00  0.00    -0.000 A 
ATOM      3  C3   11 d          -9.266 208.529 112.423  0.00  0.00    -0.046 A 
ATOM      4  C4   11 d         -10.217 208.107 111.474  0.00  0.00     0.011 A 
ATOM      5  C5   11 d         -11.474 207.641 111.889  0.00  0.00     0.037 A 
ATOM      6  C6   11 d         -11.775 207.541 113.255  0.00  0.00     0.069 A 
ATOM      7  C8   11 d         -10.838 207.967 114.208  0.00  0.00     0.050 A 
ATOM      8  C9   11 d          -7.876 208.924 111.961  0.00  0.00     0.040 C 
ATOM      9  C10  11 d          -6.794 208.717 113.037  0.00  0.00     0.018 C 
ATOM     10  C11  11 d          -7.218 209.366 114.373  0.00  0.00     0.070 C 
ATOM     11  C12  11 d          -6.421 209.154 115.680  0.00  0.00     0.153 C 
ATOM     12  C13  11 d          -5.207 208.233 115.547  0.00  0.00    -0.033 A 
ATOM     13  C14  11 d          -5.104 206.987 116.212  0.00  0.00     0.012 A 
ATOM     14  C15  11 d          -3.964 206.185 116.062  0.00  0.00     0.043 A 
ATOM     15  C16  11 d          -2.906 206.610 115.248  0.00  0.00     0.116 A 
ATOM     16  F1   11 d          -1.799 205.827 115.101  0.00  0.00    -0.206 F 
ATOM     17  C17  11 d          -2.987 207.841 114.587  0.00  0.00     0.043 A 
ATOM     18  C18  11 d          -4.125 208.647 114.737  0.00  0.00     0.012 A 
ATOM     19  N1   11 d          -7.427 208.728 116.602  0.00  0.00    -0.264 N 
ATOM     20  N2   11 d          -8.606 208.510 116.051  0.00  0.00    -0.175 NA
ENDROOT
BRANCH  19  21
ATOM     21  C19  11 d          -7.261 208.532 117.998  0.00  0.00     0.033 C 
ATOM     22  C20  11 d          -8.022 207.623 118.679  0.00  0.00     0.108 C 
ATOM     23  C24  11 d          -6.264 209.402 118.744  0.00  0.00     0.070 C 
BRANCH  22  24
ATOM     24  C21  11 d          -7.992 207.288 120.129  0.00  0.00     0.284 C 
ATOM     25  O2   11 d          -7.154 206.440 120.528  0.00  0.00    -0.260 OA
BRANCH  24  26
ATOM     26  O3   11 d          -8.917 207.825 121.064  0.00  0.00    -0.318 OA
BRANCH  26  27
ATOM     27  C22  11 d          -8.423 209.083 121.585  0.00  0.00     0.174 C 
ATOM     28  C23  11 d          -7.704 208.817 122.898  0.00  0.00     0.034 C 
ENDBRANCH  26  27
ENDBRANCH  24  26
ENDBRANCH  22  24
ENDBRANCH  19  21
BRANCH   6  29
ATOM     29  O1   11 d         -13.069 207.120 113.665  0.00  0.00    -0.356 OA
ATOM     30  C7   11 d         -13.889 208.285 113.936  0.00  0.00     0.210 C 
ENDBRANCH   6  29
TORSDOF 5
ENDMDL
MODEL 7
REMARK VINA RESULT:      -7.7      3.698      6.924
REMARK  5 active torsions:
REMARK  status: ('A' for Active; 'I' for Inactive)
REMARK    1  A    between atoms: C6_6  and  O1_7 
REMARK    2  A    between atoms: N1_21  and  C19_22 
REMARK    3  A    between atoms: C20_23  and  C21_24 
REMARK    4  A    between atoms: C21_24  and  O3_26 
REMARK    5  A    between atoms: O3_26  and  C22_27 
ROOT
ATOM      1  C1   11 d         -10.249 207.938 116.823  0.00  0.00     0.072 C 
ATOM      2  C2   11 d         -10.131 207.194 118.102  0.00  0.00    -0.000 A 
ATOM      3  C3   11 d         -11.317 206.764 118.749  0.00  0.00    -0.046 A 
ATOM      4  C4   11 d         -11.221 205.981 119.915  0.00  0.00     0.011 A 
ATOM      5  C5   11 d          -9.966 205.662 120.455  0.00  0.00     0.037 A 
ATOM      6  C6   11 d          -8.793 206.078 119.809  0.00  0.00     0.069 A 
ATOM      7  C8   11 d          -8.876 206.867 118.652  0.00  0.00     0.050 A 
ATOM      8  C9   11 d         -12.676 207.004 118.120  0.00  0.00     0.040 C 
ATOM      9  C10  11 d         -12.610 207.260 116.603  0.00  0.00     0.018 C 
ATOM     10  C11  11 d         -11.568 208.352 116.277  0.00  0.00     0.070 C 
ATOM     11  C12  11 d         -11.148 208.682 114.826  0.00  0.00     0.153 C 
ATOM     12  C13  11 d         -11.822 207.824 113.754  0.00  0.00    -0.033 A 
ATOM     13  C14  11 d         -11.110 206.928 112.920  0.00  0.00     0.012 A 
ATOM     14  C15  11 d         -11.776 206.170 111.946  0.00  0.00     0.043 A 
ATOM     15  C16  11 d         -13.163 206.291 111.787  0.00  0.00     0.116 A 
ATOM     16  F1   11 d         -13.809 205.552 110.841  0.00  0.00    -0.206 F 
ATOM     17  C17  11 d         -13.883 207.175 112.599  0.00  0.00     0.043 A 
ATOM     18  C18  11 d         -13.219 207.936 113.572  0.00  0.00     0.012 A 
ATOM     19  N1   11 d          -9.721 208.602 114.881  0.00  0.00    -0.264 N 
ATOM     20  N2   11 d          -9.250 208.150 116.028  0.00  0.00    -0.175 NA
ENDROOT
BRANCH  19  21
ATOM     21  C19  11 d          -8.818 208.957 113.846  0.00  0.00     0.033 C 
ATOM     22  C20  11 d          -7.559 208.428 113.794  0.00  0.00     0.108 C 
ATOM     23  C24  11 d          -9.250 209.997 112.825  0.00  0.00     0.070 C 
BRANCH  22  24
ATOM     24  C21  11 d          -6.485 208.684 112.796  0.00  0.00     0.284 C 
ATOM     25  O2   11 d          -6.653 208.274 111.619  0.00  0.00    -0.260 OA
BRANCH  24  26
ATOM     26  O3   11 d          -5.249 209.298 113.133  0.00  0.00    -0.318 OA
BRANCH  26  27
ATOM     27  C22  11 d          -5.392 210.060 114.357  0.00  0.00     0.174 C 
ATOM     28  C23  11 d          -4.436 209.496 115.395  0.00  0.00     0.034 C 
ENDBRANCH  26  27
ENDBRANCH  24  26
ENDBRANCH  22  24
ENDBRANCH  19  21
BRANCH   6  29
ATOM     29  O1   11 d          -7.528 205.799 120.392  0.00  0.00    -0.356 OA
ATOM     30  C7   11 d          -6.545 205.615 119.342  0.00  0.00     0.210 C 
ENDBRANCH   6  29
TORSDOF 5
ENDMDL
MODEL 8
REMARK VINA RESULT:      -7.7      3.795      9.040
REMARK  5 active torsions:
REMARK  status: ('A' for Active; 'I' for Inactive)
REMARK    1  A    between atoms: C6_6  and  O1_7 
REMARK    2  A    between atoms: N1_21  and  C19_22 
REMARK    3  A    between atoms: C20_23  and  C21_24 
REMARK    4  A    between atoms: C21_24  and  O3_26 
REMARK    5  A    between atoms: O3_26  and  C22_27 
ROOT
ATOM      1  C1   11 d          -9.795 208.415 116.329  0.00  0.00     0.072 C 
ATOM      2  C2   11 d          -8.336 208.339 116.599  0.00  0.00    -0.000 A 
ATOM      3  C3   11 d          -7.898 208.281 117.946  0.00  0.00    -0.046 A 
ATOM      4  C4   11 d          -6.526 208.118 118.218  0.00  0.00     0.011 A 
ATOM      5  C5   11 d          -5.597 208.055 117.169  0.00  0.00     0.037 A 
ATOM      6  C6   11 d          -6.031 208.101 115.837  0.00  0.00     0.069 A 
ATOM      7  C8   11 d          -7.395 208.273 115.554  0.00  0.00     0.050 A 
ATOM      8  C9   11 d          -8.897 208.235 119.087  0.00  0.00     0.040 C 
ATOM      9  C10  11 d         -10.297 207.765 118.653  0.00  0.00     0.018 C 
ATOM     10  C11  11 d         -10.787 208.562 117.425  0.00  0.00     0.070 C 
ATOM     11  C12  11 d         -12.072 208.179 116.654  0.00  0.00     0.153 C 
ATOM     12  C13  11 d         -12.792 206.940 117.188  0.00  0.00    -0.033 A 
ATOM     13  C14  11 d         -12.934 205.746 116.441  0.00  0.00     0.012 A 
ATOM     14  C15  11 d         -13.612 204.640 116.974  0.00  0.00     0.043 A 
ATOM     15  C16  11 d         -14.162 204.706 118.261  0.00  0.00     0.116 A 
ATOM     16  F1   11 d         -14.819 203.629 118.780  0.00  0.00    -0.206 F 
ATOM     17  C17  11 d         -14.036 205.880 119.013  0.00  0.00     0.043 A 
ATOM     18  C18  11 d         -13.361 206.987 118.481  0.00  0.00     0.012 A 
ATOM     19  N1   11 d         -11.620 208.102 115.300  0.00  0.00    -0.264 N 
ATOM     20  N2   11 d         -10.313 208.215 115.160  0.00  0.00    -0.175 NA
ENDROOT
BRANCH  19  21
ATOM     21  C19  11 d         -12.433 207.921 114.151  0.00  0.00     0.033 C 
ATOM     22  C20  11 d         -11.982 207.218 113.069  0.00  0.00     0.108 C 
ATOM     23  C24  11 d         -13.800 208.585 114.112  0.00  0.00     0.070 C 
BRANCH  22  24
ATOM     24  C21  11 d         -12.684 206.934 111.788  0.00  0.00     0.284 C 
ATOM     25  O2   11 d         -12.005 206.893 110.731  0.00  0.00    -0.260 OA
BRANCH  24  26
ATOM     26  O3   11 d         -14.094 206.785 111.698  0.00  0.00    -0.318 OA
BRANCH  26  27
ATOM     27  C22  11 d         -14.425 205.783 110.706  0.00  0.00     0.174 C 
ATOM     28  C23  11 d         -14.659 204.457 111.412  0.00  0.00     0.034 C 
ENDBRANCH  26  27
ENDBRANCH  24  26
ENDBRANCH  22  24
ENDBRANCH  19  21
BRANCH   6  29
ATOM     29  O1   11 d          -5.080 208.093 114.782  0.00  0.00    -0.356 OA
ATOM     30  C7   11 d          -4.332 209.334 114.801  0.00  0.00     0.210 C 
ENDBRANCH   6  29
TORSDOF 5
ENDMDL
MODEL 9
REMARK VINA RESULT:      -7.6      2.520      3.338
REMARK  5 active torsions:
REMARK  status: ('A' for Active; 'I' for Inactive)
REMARK    1  A    between atoms: C6_6  and  O1_7 
REMARK    2  A    between atoms: N1_21  and  C19_22 
REMARK    3  A    between atoms: C20_23  and  C21_24 
REMARK    4  A    between atoms: C21_24  and  O3_26 
REMARK    5  A    between atoms: O3_26  and  C22_27 
ROOT
ATOM      1  C1   11 d         -10.222 208.203 115.105  0.00  0.00     0.072 C 
ATOM      2  C2   11 d         -10.943 207.703 113.907  0.00  0.00    -0.000 A 
ATOM      3  C3   11 d         -10.472 208.081 112.625  0.00  0.00    -0.046 A 
ATOM      4  C4   11 d         -11.088 207.544 111.478  0.00  0.00     0.011 A 
ATOM      5  C5   11 d         -12.184 206.676 111.602  0.00  0.00     0.037 A 
ATOM      6  C6   11 d         -12.643 206.294 112.871  0.00  0.00     0.069 A 
ATOM      7  C8   11 d         -12.043 206.830 114.020  0.00  0.00     0.050 A 
ATOM      8  C9   11 d          -9.222 208.927 112.474  0.00  0.00     0.040 C 
ATOM      9  C10  11 d          -8.307 208.889 113.712  0.00  0.00     0.018 C 
ATOM     10  C11  11 d          -9.110 209.184 114.997  0.00  0.00     0.070 C 
ATOM     11  C12  11 d          -8.496 209.025 116.406  0.00  0.00     0.153 C 
ATOM     12  C13  11 d          -7.049 208.527 116.421  0.00  0.00    -0.033 A 
ATOM     13  C14  11 d          -6.665 207.282 116.975  0.00  0.00     0.012 A 
ATOM     14  C15  11 d          -5.323 206.877 116.970  0.00  0.00     0.043 A 
ATOM     15  C16  11 d          -4.339 207.706 116.414  0.00  0.00     0.116 A 
ATOM     16  F1   11 d          -3.034 207.310 116.408  0.00  0.00    -0.206 F 
ATOM     17  C17  11 d          -4.699 208.943 115.867  0.00  0.00     0.043 A 
ATOM     18  C18  11 d          -6.041 209.351 115.873  0.00  0.00     0.012 A 
ATOM     19  N1   11 d          -9.447 208.193 117.077  0.00  0.00    -0.264 N 
ATOM     20  N2   11 d         -10.400 207.725 116.294  0.00  0.00    -0.175 NA
ENDROOT
BRANCH  19  21
ATOM     21  C19  11 d          -9.442 207.853 118.454  0.00  0.00     0.033 C 
ATOM     22  C20  11 d          -9.796 206.600 118.874  0.00  0.00     0.108 C 
ATOM     23  C24  11 d          -9.102 208.928 119.472  0.00  0.00     0.070 C 
BRANCH  22  24
ATOM     24  C21  11 d          -9.854 206.068 120.262  0.00  0.00     0.284 C 
ATOM     25  O2   11 d         -10.961 205.664 120.701  0.00  0.00    -0.260 OA
BRANCH  24  26
ATOM     26  O3   11 d          -8.735 206.072 121.137  0.00  0.00    -0.318 OA
BRANCH  26  27
ATOM     27  C22  11 d          -7.630 205.357 120.532  0.00  0.00     0.174 C 
ATOM     28  C23  11 d          -6.402 206.252 120.554  0.00  0.00     0.034 C 
ENDBRANCH  26  27
ENDBRANCH  24  26
ENDBRANCH  22  24
ENDBRANCH  19  21
BRANCH   6  29
ATOM     29  O1   11 d         -13.787 205.460 112.987  0.00  0.00    -0.356 OA
ATOM     30  C7   11 d         -14.543 205.843 114.163  0.00  0.00     0.210 C 
ENDBRANCH   6  29
TORSDOF 5
ENDMDL
MODEL 10
REMARK VINA RESULT:      -7.5      3.969      9.096
REMARK  5 active torsions:
REMARK  status: ('A' for Active; 'I' for Inactive)
REMARK    1  A    between atoms: C6_6  and  O1_7 
REMARK    2  A    between atoms: N1_21  and  C19_22 
REMARK    3  A    between atoms: C20_23  and  C21_24 
REMARK    4  A    between atoms: C21_24  and  O3_26 
REMARK    5  A    between atoms: O3_26  and  C22_27 
ROOT
ATOM      1  C1   11 d          -9.981 208.508 114.306  0.00  0.00     0.072 C 
ATOM      2  C2   11 d          -8.525 208.611 114.577  0.00  0.00    -0.000 A 
ATOM      3  C3   11 d          -8.099 208.926 115.892  0.00  0.00    -0.046 A 
ATOM      4  C4   11 d          -6.723 208.939 116.187  0.00  0.00     0.011 A 
ATOM      5  C5   11 d          -5.779 208.685 115.180  0.00  0.00     0.037 A 
ATOM      6  C6   11 d          -6.199 208.363 113.882  0.00  0.00     0.069 A 
ATOM      7  C8   11 d          -7.569 208.356 113.575  0.00  0.00     0.050 A 
ATOM      8  C9   11 d          -9.106 209.094 117.015  0.00  0.00     0.040 C 
ATOM      9  C10  11 d         -10.462 208.426 116.723  0.00  0.00     0.018 C 
ATOM     10  C11  11 d         -10.995 208.851 115.338  0.00  0.00     0.070 C 
ATOM     11  C12  11 d         -12.238 208.192 114.697  0.00  0.00     0.153 C 
ATOM     12  C13  11 d         -12.871 207.076 115.530  0.00  0.00    -0.033 A 
ATOM     13  C14  11 d         -12.915 205.726 115.107  0.00  0.00     0.012 A 
ATOM     14  C15  11 d         -13.516 204.742 115.906  0.00  0.00     0.043 A 
ATOM     15  C16  11 d         -14.084 205.086 117.139  0.00  0.00     0.116 A 
ATOM     16  F1   11 d         -14.666 204.128 117.915  0.00  0.00    -0.206 F 
ATOM     17  C17  11 d         -14.055 206.417 117.571  0.00  0.00     0.043 A 
ATOM     18  C18  11 d         -13.457 207.404 116.773  0.00  0.00     0.012 A 
ATOM     19  N1   11 d         -11.766 207.812 113.402  0.00  0.00    -0.264 N 
ATOM     20  N2   11 d         -10.469 207.984 113.229  0.00  0.00    -0.175 NA
ENDROOT
BRANCH  19  21
ATOM     21  C19  11 d         -12.550 207.289 112.341  0.00  0.00     0.033 C 
ATOM     22  C20  11 d         -13.890 207.547 112.259  0.00  0.00     0.108 C 
ATOM     23  C24  11 d         -11.888 206.373 111.325  0.00  0.00     0.070 C 
BRANCH  22  24
ATOM     24  C21  11 d         -14.863 207.086 111.232  0.00  0.00     0.284 C 
ATOM     25  O2   11 d         -15.177 207.879 110.308  0.00  0.00    -0.260 OA
BRANCH  24  26
ATOM     26  O3   11 d         -15.510 205.822 111.294  0.00  0.00    -0.318 OA
BRANCH  26  27
ATOM     27  C22  11 d         -16.514 205.830 112.338  0.00  0.00     0.174 C 
ATOM     28  C23  11 d         -17.803 206.400 111.769  0.00  0.00     0.034 C 
ENDBRANCH  26  27
ENDBRANCH  24  26
ENDBRANCH  22  24
ENDBRANCH  19  21
BRANCH   6  29
ATOM     29  O1   11 d          -5.238 208.161 112.857  0.00  0.00    -0.356 OA
ATOM     30  C7   11 d          -5.896 208.205 111.565  0.00  0.00     0.210 C 
ENDBRANCH   6  29
TORSDOF 5
ENDMDL
