MODEL 1
REMARK VINA RESULT:      -7.6      0.000      0.000
REMARK  0 active torsions:
REMARK  status: ('A' for Active; 'I' for Inactive)
ROOT
ATOM      1  C1   11 d           7.737  46.371  52.094  0.00  0.00     0.136 A 
ATOM      2  N1   11 d           6.606  45.973  52.748  0.00  0.00    -0.341 N 
ATOM      3  C2   11 d           6.025  45.015  52.001  0.00  0.00     0.062 A 
ATOM      4  C3   11 d           6.797  44.833  50.875  0.00  0.00     0.086 A 
ATOM      5  C4   11 d           6.444  43.912  49.884  0.00  0.00     0.040 A 
ATOM      6  C5   11 d           5.251  43.170  50.052  0.00  0.00    -0.060 A 
ATOM      7  C6   11 d           4.488  43.325  51.240  0.00  0.00     0.009 A 
ATOM      8  C7   11 d           4.862  44.265  52.221  0.00  0.00     0.032 A 
ATOM      9  C8   11 d           4.876  42.111  49.054  0.00  0.00     0.048 C 
ATOM     10  N2   11 d           7.857  45.662  50.942  0.00  0.00    -0.231 NA
ATOM     11  C9   11 d           8.757  47.438  52.484  0.00  0.00     0.255 C 
ATOM     12  N3   11 d           9.437  47.232  53.808  0.00  0.00    -0.064 N 
ATOM     13  C10  11 d           8.959  48.312  54.724  0.00  0.00     0.233 C 
ATOM     14  C11  11 d           7.820  49.033  54.013  0.00  0.00     0.030 C 
ATOM     15  C12  11 d           8.146  48.839  52.545  0.00  0.00     0.042 C 
ATOM     16  H1   11 d           6.211  46.332  53.654  0.00  0.00     0.167 HD
ATOM     17  H9   11 d           9.248  46.263  54.229  0.00  0.00     0.278 HD
ATOM     18  H10  11 d          10.504  47.315  53.694  0.00  0.00     0.278 HD
ENDROOT
TORSDOF 0
ENDMDL
MODEL 2
REMARK VINA RESULT:      -7.4      2.150      6.325
REMARK  0 active torsions:
REMARK  status: ('A' for Active; 'I' for Inactive)
ROOT
ATOM      1  C1   11 d           4.652  43.563  51.183  0.00  0.00     0.136 A 
ATOM      2  N1   11 d           5.699  43.845  50.352  0.00  0.00    -0.341 N 
ATOM      3  C2   11 d           6.419  44.825  50.929  0.00  0.00     0.062 A 
ATOM      4  C3   11 d           5.802  45.158  52.114  0.00  0.00     0.086 A 
ATOM      5  C4   11 d           6.300  46.168  52.943  0.00  0.00     0.040 A 
ATOM      6  C5   11 d           7.458  46.867  52.527  0.00  0.00    -0.060 A 
ATOM      7  C6   11 d           8.119  46.483  51.330  0.00  0.00     0.009 A 
ATOM      8  C7   11 d           7.592  45.466  50.509  0.00  0.00     0.032 A 
ATOM      9  C8   11 d           8.076  47.903  53.425  0.00  0.00     0.048 C 
ATOM     10  N2   11 d           4.721  44.370  52.273  0.00  0.00    -0.231 NA
ATOM     11  C9   11 d           3.523  42.551  51.009  0.00  0.00     0.255 C 
ATOM     12  N3   11 d           3.952  41.120  50.852  0.00  0.00    -0.064 N 
ATOM     13  C10  11 d           3.629  40.712  49.450  0.00  0.00     0.233 C 
ATOM     14  C11  11 d           3.208  41.972  48.702  0.00  0.00     0.030 C 
ATOM     15  C12  11 d           2.644  42.857  49.796  0.00  0.00     0.042 C 
ATOM     16  H1   11 d           5.930  43.418  49.420  0.00  0.00     0.167 HD
ATOM     17  H9   11 d           4.995  40.971  51.061  0.00  0.00     0.278 HD
ATOM     18  H10  11 d           3.407  40.491  51.534  0.00  0.00     0.278 HD
ENDROOT
TORSDOF 0
ENDMDL
MODEL 3
REMARK VINA RESULT:      -7.3      2.494      5.932
REMARK  0 active torsions:
REMARK  status: ('A' for Active; 'I' for Inactive)
ROOT
ATOM      1  C1   11 d           4.409  44.916  53.067  0.00  0.00     0.136 A 
ATOM      2  N1   11 d           5.065  45.032  51.875  0.00  0.00    -0.341 N 
ATOM      3  C2   11 d           6.255  45.610  52.125  0.00  0.00     0.062 A 
ATOM      4  C3   11 d           6.324  45.864  53.476  0.00  0.00     0.086 A 
ATOM      5  C4   11 d           7.437  46.485  54.051  0.00  0.00     0.040 A 
ATOM      6  C5   11 d           8.502  46.871  53.202  0.00  0.00    -0.060 A 
ATOM      7  C6   11 d           8.446  46.559  51.818  0.00  0.00     0.009 A 
ATOM      8  C7   11 d           7.310  45.939  51.263  0.00  0.00     0.032 A 
ATOM      9  C8   11 d           9.753  47.466  53.787  0.00  0.00     0.048 C 
ATOM     10  N2   11 d           5.190  45.423  54.055  0.00  0.00    -0.231 NA
ATOM     11  C9   11 d           3.021  44.349  53.358  0.00  0.00     0.255 C 
ATOM     12  N3   11 d           2.806  42.919  52.951  0.00  0.00    -0.064 N 
ATOM     13  C10  11 d           1.830  42.924  51.819  0.00  0.00     0.233 C 
ATOM     14  C11  11 d           1.632  44.376  51.402  0.00  0.00     0.030 C 
ATOM     15  C12  11 d           1.908  45.147  52.678  0.00  0.00     0.042 C 
ATOM     16  H1   11 d           4.737  44.756  50.915  0.00  0.00     0.167 HD
ATOM     17  H9   11 d           3.715  42.423  52.668  0.00  0.00     0.278 HD
ATOM     18  H10  11 d           2.390  42.358  53.770  0.00  0.00     0.278 HD
ENDROOT
TORSDOF 0
ENDMDL
MODEL 4
REMARK VINA RESULT:      -7.2      2.918      4.789
REMARK  0 active torsions:
REMARK  status: ('A' for Active; 'I' for Inactive)
ROOT
ATOM      1  C1   11 d           4.002  45.247  53.127  0.00  0.00     0.136 A 
ATOM      2  N1   11 d           3.790  44.073  52.463  0.00  0.00    -0.341 N 
ATOM      3  C2   11 d           4.817  43.904  51.608  0.00  0.00     0.062 A 
ATOM      4  C3   11 d           5.656  44.987  51.739  0.00  0.00     0.086 A 
ATOM      5  C4   11 d           6.813  45.118  50.964  0.00  0.00     0.040 A 
ATOM      6  C5   11 d           7.101  44.109  50.014  0.00  0.00    -0.060 A 
ATOM      7  C6   11 d           6.259  42.969  49.922  0.00  0.00     0.009 A 
ATOM      8  C7   11 d           5.096  42.865  50.709  0.00  0.00     0.032 A 
ATOM      9  C8   11 d           8.375  44.166  49.219  0.00  0.00     0.048 C 
ATOM     10  N2   11 d           5.157  45.807  52.685  0.00  0.00    -0.231 NA
ATOM     11  C9   11 d           3.143  45.926  54.192  0.00  0.00     0.255 C 
ATOM     12  N3   11 d           2.888  45.118  55.432  0.00  0.00    -0.064 N 
ATOM     13  C10  11 d           1.434  44.770  55.442  0.00  0.00     0.233 C 
ATOM     14  C11  11 d           0.864  45.182  54.090  0.00  0.00     0.030 C 
ATOM     15  C12  11 d           1.764  46.326  53.665  0.00  0.00     0.042 C 
ATOM     16  H1   11 d           2.984  43.405  52.551  0.00  0.00     0.167 HD
ATOM     17  H9   11 d           3.492  44.233  55.486  0.00  0.00     0.278 HD
ATOM     18  H10  11 d           3.114  45.701  56.308  0.00  0.00     0.278 HD
ENDROOT
TORSDOF 0
ENDMDL
MODEL 5
REMARK VINA RESULT:      -7.0      1.986      5.962
REMARK  0 active torsions:
REMARK  status: ('A' for Active; 'I' for Inactive)
ROOT
ATOM      1  C1   11 d           5.722  44.033  50.754  0.00  0.00     0.136 A 
ATOM      2  N1   11 d           5.114  44.261  51.955  0.00  0.00    -0.341 N 
ATOM      3  C2   11 d           5.713  45.331  52.512  0.00  0.00     0.062 A 
ATOM      4  C3   11 d           6.704  45.753  51.654  0.00  0.00     0.086 A 
ATOM      5  C4   11 d           7.526  46.841  51.961  0.00  0.00     0.040 A 
ATOM      6  C5   11 d           7.333  47.501  53.199  0.00  0.00    -0.060 A 
ATOM      7  C6   11 d           6.276  47.093  54.054  0.00  0.00     0.009 A 
ATOM      8  C7   11 d           5.465  45.989  53.725  0.00  0.00     0.032 A 
ATOM      9  C8   11 d           8.138  48.725  53.533  0.00  0.00     0.048 C 
ATOM     10  N2   11 d           6.697  44.959  50.566  0.00  0.00    -0.231 NA
ATOM     11  C9   11 d           5.450  42.940  49.723  0.00  0.00     0.255 C 
ATOM     12  N3   11 d           4.052  42.901  49.172  0.00  0.00    -0.064 N 
ATOM     13  C10  11 d           3.413  41.648  49.678  0.00  0.00     0.233 C 
ATOM     14  C11  11 d           4.356  41.049  50.714  0.00  0.00     0.030 C 
ATOM     15  C12  11 d           5.720  41.538  50.270  0.00  0.00     0.042 C 
ATOM     16  H1   11 d           4.337  43.720  52.411  0.00  0.00     0.167 HD
ATOM     17  H9   11 d           3.472  43.762  49.444  0.00  0.00     0.278 HD
ATOM     18  H10  11 d           4.077  42.872  48.097  0.00  0.00     0.278 HD
ENDROOT
TORSDOF 0
ENDMDL
MODEL 6
REMARK VINA RESULT:      -6.9      2.837      5.660
REMARK  0 active torsions:
REMARK  status: ('A' for Active; 'I' for Inactive)
ROOT
ATOM      1  C1   11 d           4.019  45.784  52.866  0.00  0.00     0.136 A 
ATOM      2  N1   11 d           4.649  46.175  54.013  0.00  0.00    -0.341 N 
ATOM      3  C2   11 d           5.938  46.411  53.704  0.00  0.00     0.062 A 
ATOM      4  C3   11 d           6.103  46.151  52.362  0.00  0.00     0.086 A 
ATOM      5  C4   11 d           7.346  46.284  51.735  0.00  0.00     0.040 A 
ATOM      6  C5   11 d           8.455  46.679  52.522  0.00  0.00    -0.060 A 
ATOM      7  C6   11 d           8.266  46.996  53.893  0.00  0.00     0.009 A 
ATOM      8  C7   11 d           7.004  46.847  54.502  0.00  0.00     0.032 A 
ATOM      9  C8   11 d           9.791  46.915  51.875  0.00  0.00     0.048 C 
ATOM     10  N2   11 d           4.915  45.778  51.846  0.00  0.00    -0.231 NA
ATOM     11  C9   11 d           2.562  45.380  52.651  0.00  0.00     0.255 C 
ATOM     12  N3   11 d           1.539  46.418  53.015  0.00  0.00    -0.064 N 
ATOM     13  C10  11 d           0.802  45.911  54.212  0.00  0.00     0.233 C 
ATOM     14  C11  11 d           1.536  44.667  54.699  0.00  0.00     0.030 C 
ATOM     15  C12  11 d           2.180  44.126  53.438  0.00  0.00     0.042 C 
ATOM     16  H1   11 d           4.251  46.267  54.982  0.00  0.00     0.167 HD
ATOM     17  H9   11 d           1.973  47.380  53.213  0.00  0.00     0.278 HD
ATOM     18  H10  11 d           0.843  46.554  52.206  0.00  0.00     0.278 HD
ENDROOT
TORSDOF 0
ENDMDL
MODEL 7
REMARK VINA RESULT:      -6.7      2.970      3.716
REMARK  0 active torsions:
REMARK  status: ('A' for Active; 'I' for Inactive)
ROOT
ATOM      1  C1   11 d           6.121  47.046  53.346  0.00  0.00     0.136 A 
ATOM      2  N1   11 d           5.602  46.914  54.603  0.00  0.00    -0.341 N 
ATOM      3  C2   11 d           4.305  46.577  54.469  0.00  0.00     0.062 A 
ATOM      4  C3   11 d           4.022  46.517  53.123  0.00  0.00     0.086 A 
ATOM      5  C4   11 d           2.741  46.210  52.654  0.00  0.00     0.040 A 
ATOM      6  C5   11 d           1.718  45.977  53.603  0.00  0.00    -0.060 A 
ATOM      7  C6   11 d           2.029  45.989  54.989  0.00  0.00     0.009 A 
ATOM      8  C7   11 d           3.326  46.308  55.435  0.00  0.00     0.032 A 
ATOM      9  C8   11 d           0.347  45.563  53.146  0.00  0.00     0.048 C 
ATOM     10  N2   11 d           5.147  46.794  52.434  0.00  0.00    -0.231 NA
ATOM     11  C9   11 d           7.536  47.429  52.918  0.00  0.00     0.255 C 
ATOM     12  N3   11 d           8.631  46.531  53.418  0.00  0.00    -0.064 N 
ATOM     13  C10  11 d           9.437  47.319  54.400  0.00  0.00     0.233 C 
ATOM     14  C11  11 d           8.687  48.622  54.654  0.00  0.00     0.030 C 
ATOM     15  C12  11 d           7.920  48.841  53.364  0.00  0.00     0.042 C 
ATOM     16  H1   11 d           6.078  47.057  55.529  0.00  0.00     0.167 HD
ATOM     17  H9   11 d           8.259  45.629  53.867  0.00  0.00     0.278 HD
ATOM     18  H10  11 d           9.267  46.231  52.603  0.00  0.00     0.278 HD
ENDROOT
TORSDOF 0
ENDMDL
MODEL 8
REMARK VINA RESULT:      -6.5      1.639      2.059
REMARK  0 active torsions:
REMARK  status: ('A' for Active; 'I' for Inactive)
ROOT
ATOM      1  C1   11 d           6.438  46.144  52.551  0.00  0.00     0.136 A 
ATOM      2  N1   11 d           5.227  46.739  52.766  0.00  0.00    -0.341 N 
ATOM      3  C2   11 d           4.281  45.915  52.279  0.00  0.00     0.062 A 
ATOM      4  C3   11 d           4.914  44.813  51.750  0.00  0.00     0.086 A 
ATOM      5  C4   11 d           4.199  43.775  51.144  0.00  0.00     0.040 A 
ATOM      6  C5   11 d           2.790  43.887  51.066  0.00  0.00    -0.060 A 
ATOM      7  C6   11 d           2.141  45.001  51.661  0.00  0.00     0.009 A 
ATOM      8  C7   11 d           2.885  46.036  52.260  0.00  0.00     0.032 A 
ATOM      9  C8   11 d           1.976  42.759  50.499  0.00  0.00     0.048 C 
ATOM     10  N2   11 d           6.242  44.952  51.930  0.00  0.00    -0.231 NA
ATOM     11  C9   11 d           7.839  46.648  52.888  0.00  0.00     0.255 C 
ATOM     12  N3   11 d           8.092  46.938  54.340  0.00  0.00    -0.064 N 
ATOM     13  C10  11 d           8.257  48.418  54.474  0.00  0.00     0.233 C 
ATOM     14  C11  11 d           7.879  49.035  53.132  0.00  0.00     0.030 C 
ATOM     15  C12  11 d           8.195  47.933  52.139  0.00  0.00     0.042 C 
ATOM     16  H1   11 d           5.023  47.673  53.205  0.00  0.00     0.167 HD
ATOM     17  H9   11 d           7.307  46.583  54.980  0.00  0.00     0.278 HD
ATOM     18  H10  11 d           8.997  46.454  54.663  0.00  0.00     0.278 HD
ENDROOT
TORSDOF 0
ENDMDL
MODEL 9
REMARK VINA RESULT:      -6.5      2.636      3.689
REMARK  0 active torsions:
REMARK  status: ('A' for Active; 'I' for Inactive)
ROOT
ATOM      1  C1   11 d           4.544  44.377  52.922  0.00  0.00     0.136 A 
ATOM      2  N1   11 d           5.531  44.422  51.979  0.00  0.00    -0.341 N 
ATOM      3  C2   11 d           5.254  43.478  51.061  0.00  0.00     0.062 A 
ATOM      4  C3   11 d           4.098  42.839  51.450  0.00  0.00     0.086 A 
ATOM      5  C4   11 d           3.556  41.784  50.708  0.00  0.00     0.040 A 
ATOM      6  C5   11 d           4.238  41.365  49.541  0.00  0.00    -0.060 A 
ATOM      7  C6   11 d           5.401  42.063  49.118  0.00  0.00     0.009 A 
ATOM      8  C7   11 d           5.930  43.118  49.887  0.00  0.00     0.032 A 
ATOM      9  C8   11 d           3.649  40.292  48.669  0.00  0.00     0.048 C 
ATOM     10  N2   11 d           3.656  43.404  52.590  0.00  0.00    -0.231 NA
ATOM     11  C9   11 d           4.374  45.214  54.188  0.00  0.00     0.255 C 
ATOM     12  N3   11 d           4.286  46.699  53.978  0.00  0.00    -0.064 N 
ATOM     13  C10  11 d           5.527  47.302  54.552  0.00  0.00     0.233 C 
ATOM     14  C11  11 d           6.462  46.152  54.908  0.00  0.00     0.030 C 
ATOM     15  C12  11 d           5.513  45.003  55.186  0.00  0.00     0.042 C 
ATOM     16  H1   11 d           6.377  45.045  51.944  0.00  0.00     0.167 HD
ATOM     17  H9   11 d           4.174  46.968  52.945  0.00  0.00     0.278 HD
ATOM     18  H10  11 d           3.430  47.097  54.495  0.00  0.00     0.278 HD
ENDROOT
TORSDOF 0
ENDMDL
MODEL 10
REMARK VINA RESULT:      -6.3      4.625      5.931
REMARK  0 active torsions:
REMARK  status: ('A' for Active; 'I' for Inactive)
ROOT
ATOM      1  C1   11 d           3.628  42.852  50.422  0.00  0.00     0.136 A 
ATOM      2  N1   11 d           2.541  42.968  49.602  0.00  0.00    -0.341 N 
ATOM      3  C2   11 d           2.886  42.459  48.404  0.00  0.00     0.062 A 
ATOM      4  C3   11 d           4.195  42.042  48.484  0.00  0.00     0.086 A 
ATOM      5  C4   11 d           4.856  41.482  47.387  0.00  0.00     0.040 A 
ATOM      6  C5   11 d           4.150  41.367  46.165  0.00  0.00    -0.060 A 
ATOM      7  C6   11 d           2.784  41.750  46.105  0.00  0.00     0.009 A 
ATOM      8  C7   11 d           2.143  42.318  47.224  0.00  0.00     0.032 A 
ATOM      9  C8   11 d           4.793  40.696  44.984  0.00  0.00     0.048 C 
ATOM     10  N2   11 d           4.645  42.274  49.733  0.00  0.00    -0.231 NA
ATOM     11  C9   11 d           3.794  43.284  51.877  0.00  0.00     0.255 C 
ATOM     12  N3   11 d           2.829  42.669  52.851  0.00  0.00    -0.064 N 
ATOM     13  C10  11 d           1.928  43.760  53.331  0.00  0.00     0.233 C 
ATOM     14  C11  11 d           2.213  44.988  52.474  0.00  0.00     0.030 C 
ATOM     15  C12  11 d           3.658  44.797  52.058  0.00  0.00     0.042 C 
ATOM     16  H1   11 d           1.601  43.386  49.814  0.00  0.00     0.167 HD
ATOM     17  H9   11 d           2.260  41.865  52.424  0.00  0.00     0.278 HD
ATOM     18  H10  11 d           3.361  42.258  53.691  0.00  0.00     0.278 HD
ENDROOT
TORSDOF 0
ENDMDL
