MODEL 1
REMARK VINA RESULT:      -6.2      0.000      0.000
REMARK  7 active torsions:
REMARK  status: ('A' for Active; 'I' for Inactive)
REMARK    1  A    between atoms: C1_1  and  O2_3 
REMARK    2  A    between atoms: C1_1  and  C4_6 
REMARK    3  A    between atoms: O2_3  and  C2_4 
REMARK    4  A    between atoms: C4_6  and  N1_7 
REMARK    5  A    between atoms: C4_6  and  C7_11 
REMARK       I    between atoms: N1_7  and  C5_8 
REMARK    6  A    between atoms: C7_11  and  C8_12 
REMARK    7  A    between atoms: C11_15  and  O4_18 
ROOT
ATOM      1  C4   11 d          12.003  43.995  27.360  0.00  0.00     0.188 C 
ENDROOT
BRANCH   1   2
ATOM      2  C1   11 d          12.300  42.819  28.282  0.00  0.00     0.282 C 
ATOM      3  O1   11 d          11.365  42.275  28.924  0.00  0.00    -0.263 OA
BRANCH   2   4
ATOM      4  O2   11 d          13.636  42.465  28.607  0.00  0.00    -0.320 OA
BRANCH   4   5
ATOM      5  C2   11 d          13.997  41.259  27.889  0.00  0.00     0.174 C 
ATOM      6  C3   11 d          15.437  41.371  27.415  0.00  0.00     0.034 C 
ENDBRANCH   4   5
ENDBRANCH   2   4
ENDBRANCH   1   2
BRANCH   1   7
ATOM      7  N1   11 d          10.998  44.941  27.953  0.00  0.00    -0.347 N 
ATOM      8  C5   11 d           9.848  45.363  27.227  0.00  0.00     0.214 C 
ATOM      9  O3   11 d           9.643  44.932  26.039  0.00  0.00    -0.274 OA
ATOM     10  C6   11 d           8.867  46.320  27.829  0.00  0.00     0.117 C 
ATOM     11  H7   11 d          11.153  45.314  28.950  0.00  0.00     0.163 HD
ENDBRANCH   1   7
BRANCH   1  12
ATOM     12  C7   11 d          13.242  44.826  26.958  0.00  0.00     0.074 C 
BRANCH  12  13
ATOM     13  C8   11 d          13.589  44.811  25.487  0.00  0.00    -0.056 A 
ATOM     14  C9   11 d          12.803  45.530  24.563  0.00  0.00     0.010 A 
ATOM     15  C10  11 d          13.108  45.498  23.193  0.00  0.00     0.037 A 
ATOM     16  C11  11 d          14.189  44.736  22.730  0.00  0.00     0.065 A 
ATOM     17  C12  11 d          14.993  44.041  23.644  0.00  0.00     0.037 A 
ATOM     18  C13  11 d          14.684  44.060  25.013  0.00  0.00     0.010 A 
BRANCH  16  19
ATOM     19  O4   11 d          14.544  44.770  21.363  0.00  0.00    -0.361 OA
ATOM     20  H17  11 d          13.890  45.447  20.934  0.00  0.00     0.217 HD
ENDBRANCH  16  19
ENDBRANCH  12  13
ENDBRANCH   1  12
TORSDOF 7
ENDMDL
MODEL 2
REMARK VINA RESULT:      -5.9      2.241      4.843
REMARK  7 active torsions:
REMARK  status: ('A' for Active; 'I' for Inactive)
REMARK    1  A    between atoms: C1_1  and  O2_3 
REMARK    2  A    between atoms: C1_1  and  C4_6 
REMARK    3  A    between atoms: O2_3  and  C2_4 
REMARK    4  A    between atoms: C4_6  and  N1_7 
REMARK    5  A    between atoms: C4_6  and  C7_11 
REMARK       I    between atoms: N1_7  and  C5_8 
REMARK    6  A    between atoms: C7_11  and  C8_12 
REMARK    7  A    between atoms: C11_15  and  O4_18 
ROOT
ATOM      1  C4   11 d          13.493  42.699  25.936  0.00  0.00     0.188 C 
ENDROOT
BRANCH   1   2
ATOM      2  C1   11 d          14.096  42.274  24.603  0.00  0.00     0.282 C 
ATOM      3  O1   11 d          13.941  41.095  24.193  0.00  0.00    -0.263 OA
BRANCH   2   4
ATOM      4  O2   11 d          15.018  43.109  23.919  0.00  0.00    -0.320 OA
BRANCH   4   5
ATOM      5  C2   11 d          14.380  43.654  22.737  0.00  0.00     0.174 C 
ATOM      6  C3   11 d          15.399  43.738  21.612  0.00  0.00     0.034 C 
ENDBRANCH   4   5
ENDBRANCH   2   4
ENDBRANCH   1   2
BRANCH   1   7
ATOM      7  N1   11 d          14.232  42.113  27.105  0.00  0.00    -0.347 N 
ATOM      8  C5   11 d          13.566  41.767  28.315  0.00  0.00     0.214 C 
ATOM      9  O3   11 d          12.303  41.945  28.428  0.00  0.00    -0.274 OA
ATOM     10  C6   11 d          14.323  41.201  29.475  0.00  0.00     0.117 C 
ATOM     11  H7   11 d          15.294  41.957  27.030  0.00  0.00     0.163 HD
ENDBRANCH   1   7
BRANCH   1  12
ATOM     12  C7   11 d          13.420  44.227  26.151  0.00  0.00     0.074 C 
BRANCH  12  13
ATOM     13  C8   11 d          12.107  44.877  25.775  0.00  0.00    -0.056 A 
ATOM     14  C9   11 d          10.973  44.716  26.598  0.00  0.00     0.010 A 
ATOM     15  C10  11 d           9.747  45.298  26.239  0.00  0.00     0.037 A 
ATOM     16  C11  11 d           9.635  46.031  25.050  0.00  0.00     0.065 A 
ATOM     17  C12  11 d          10.765  46.220  24.241  0.00  0.00     0.037 A 
ATOM     18  C13  11 d          11.990  45.629  24.589  0.00  0.00     0.010 A 
BRANCH  16  19
ATOM     19  O4   11 d           8.424  46.684  24.732  0.00  0.00    -0.361 OA
ATOM     20  H17  11 d           8.232  46.425  23.749  0.00  0.00     0.217 HD
ENDBRANCH  16  19
ENDBRANCH  12  13
ENDBRANCH   1  12
TORSDOF 7
ENDMDL
MODEL 3
REMARK VINA RESULT:      -5.9      2.127      5.755
REMARK  7 active torsions:
REMARK  status: ('A' for Active; 'I' for Inactive)
REMARK    1  A    between atoms: C1_1  and  O2_3 
REMARK    2  A    between atoms: C1_1  and  C4_6 
REMARK    3  A    between atoms: O2_3  and  C2_4 
REMARK    4  A    between atoms: C4_6  and  N1_7 
REMARK    5  A    between atoms: C4_6  and  C7_11 
REMARK       I    between atoms: N1_7  and  C5_8 
REMARK    6  A    between atoms: C7_11  and  C8_12 
REMARK    7  A    between atoms: C11_15  and  O4_18 
ROOT
ATOM      1  C4   11 d          14.235  44.039  24.388  0.00  0.00     0.188 C 
ENDROOT
BRANCH   1   2
ATOM      2  C1   11 d          15.151  43.966  23.172  0.00  0.00     0.282 C 
ATOM      3  O1   11 d          16.335  44.382  23.253  0.00  0.00    -0.263 OA
BRANCH   2   4
ATOM      4  O2   11 d          14.636  43.647  21.888  0.00  0.00    -0.320 OA
BRANCH   4   5
ATOM      5  C2   11 d          14.765  44.803  21.023  0.00  0.00     0.174 C 
ATOM      6  C3   11 d          13.431  45.528  20.952  0.00  0.00     0.034 C 
ENDBRANCH   4   5
ENDBRANCH   2   4
ENDBRANCH   1   2
BRANCH   1   7
ATOM      7  N1   11 d          14.940  43.640  25.653  0.00  0.00    -0.347 N 
ATOM      8  C5   11 d          14.740  42.364  26.252  0.00  0.00     0.214 C 
ATOM      9  O3   11 d          13.948  41.516  25.710  0.00  0.00    -0.274 OA
ATOM     10  C6   11 d          15.438  41.994  27.523  0.00  0.00     0.117 C 
ATOM     11  H7   11 d          15.610  44.340  26.123  0.00  0.00     0.163 HD
ENDBRANCH   1   7
BRANCH   1  12
ATOM     12  C7   11 d          13.595  45.423  24.629  0.00  0.00     0.074 C 
BRANCH  12  13
ATOM     13  C8   11 d          12.154  45.404  25.089  0.00  0.00    -0.056 A 
ATOM     14  C9   11 d          11.167  46.106  24.367  0.00  0.00     0.010 A 
ATOM     15  C10  11 d           9.833  46.110  24.805  0.00  0.00     0.037 A 
ATOM     16  C11  11 d           9.475  45.427  25.976  0.00  0.00     0.065 A 
ATOM     17  C12  11 d          10.444  44.702  26.684  0.00  0.00     0.037 A 
ATOM     18  C13  11 d          11.781  44.707  26.256  0.00  0.00     0.010 A 
BRANCH  16  19
ATOM     19  O4   11 d           8.120  45.364  26.370  0.00  0.00    -0.361 OA
ATOM     20  H17  11 d           7.741  44.528  25.891  0.00  0.00     0.217 HD
ENDBRANCH  16  19
ENDBRANCH  12  13
ENDBRANCH   1  12
TORSDOF 7
ENDMDL
MODEL 4
REMARK VINA RESULT:      -5.9      1.023      1.964
REMARK  7 active torsions:
REMARK  status: ('A' for Active; 'I' for Inactive)
REMARK    1  A    between atoms: C1_1  and  O2_3 
REMARK    2  A    between atoms: C1_1  and  C4_6 
REMARK    3  A    between atoms: O2_3  and  C2_4 
REMARK    4  A    between atoms: C4_6  and  N1_7 
REMARK    5  A    between atoms: C4_6  and  C7_11 
REMARK       I    between atoms: N1_7  and  C5_8 
REMARK    6  A    between atoms: C7_11  and  C8_12 
REMARK    7  A    between atoms: C11_15  and  O4_18 
ROOT
ATOM      1  C4   11 d          11.930  43.891  27.302  0.00  0.00     0.188 C 
ENDROOT
BRANCH   1   2
ATOM      2  C1   11 d          12.286  42.674  28.147  0.00  0.00     0.282 C 
ATOM      3  O1   11 d          13.180  41.880  27.758  0.00  0.00    -0.263 OA
BRANCH   2   4
ATOM      4  O2   11 d          11.479  42.291  29.251  0.00  0.00    -0.320 OA
BRANCH   4   5
ATOM      5  C2   11 d          12.236  42.460  30.476  0.00  0.00     0.174 C 
ATOM      6  C3   11 d          12.284  41.137  31.221  0.00  0.00     0.034 C 
ENDBRANCH   4   5
ENDBRANCH   2   4
ENDBRANCH   1   2
BRANCH   1   7
ATOM      7  N1   11 d          10.904  44.763  27.968  0.00  0.00    -0.347 N 
ATOM      8  C5   11 d           9.807  45.314  27.246  0.00  0.00     0.214 C 
ATOM      9  O3   11 d           9.669  45.065  25.998  0.00  0.00    -0.274 OA
ATOM     10  C6   11 d           8.806  46.196  27.924  0.00  0.00     0.117 C 
ATOM     11  H7   11 d          11.004  44.984  29.016  0.00  0.00     0.163 HD
ENDBRANCH   1   7
BRANCH   1  12
ATOM     12  C7   11 d          13.130  44.788  26.928  0.00  0.00     0.074 C 
BRANCH  12  13
ATOM     13  C8   11 d          13.539  44.756  25.472  0.00  0.00    -0.056 A 
ATOM     14  C9   11 d          14.669  44.017  25.066  0.00  0.00     0.010 A 
ATOM     15  C10  11 d          15.065  44.005  23.719  0.00  0.00     0.037 A 
ATOM     16  C11  11 d          14.347  44.743  22.768  0.00  0.00     0.065 A 
ATOM     17  C12  11 d          13.205  45.457  23.157  0.00  0.00     0.037 A 
ATOM     18  C13  11 d          12.814  45.482  24.505  0.00  0.00     0.010 A 
BRANCH  16  19
ATOM     19  O4   11 d          14.697  44.665  21.402  0.00  0.00    -0.361 OA
ATOM     20  H17  11 d          15.680  44.339  21.396  0.00  0.00     0.217 HD
ENDBRANCH  16  19
ENDBRANCH  12  13
ENDBRANCH   1  12
TORSDOF 7
ENDMDL
MODEL 5
REMARK VINA RESULT:      -5.8      1.825      4.153
REMARK  7 active torsions:
REMARK  status: ('A' for Active; 'I' for Inactive)
REMARK    1  A    between atoms: C1_1  and  O2_3 
REMARK    2  A    between atoms: C1_1  and  C4_6 
REMARK    3  A    between atoms: O2_3  and  C2_4 
REMARK    4  A    between atoms: C4_6  and  N1_7 
REMARK    5  A    between atoms: C4_6  and  C7_11 
REMARK       I    between atoms: N1_7  and  C5_8 
REMARK    6  A    between atoms: C7_11  and  C8_12 
REMARK    7  A    between atoms: C11_15  and  O4_18 
ROOT
ATOM      1  C4   11 d          13.007  42.786  26.797  0.00  0.00     0.188 C 
ENDROOT
BRANCH   1   2
ATOM      2  C1   11 d          11.737  43.530  27.190  0.00  0.00     0.282 C 
ATOM      3  O1   11 d          11.538  43.839  28.393  0.00  0.00    -0.263 OA
BRANCH   2   4
ATOM      4  O2   11 d          10.667  43.686  26.269  0.00  0.00    -0.320 OA
BRANCH   4   5
ATOM      5  C2   11 d          10.479  45.096  25.992  0.00  0.00     0.174 C 
ATOM      6  C3   11 d           8.991  45.406  25.961  0.00  0.00     0.034 C 
ENDBRANCH   4   5
ENDBRANCH   2   4
ENDBRANCH   1   2
BRANCH   1   7
ATOM      7  N1   11 d          13.123  41.458  27.489  0.00  0.00    -0.347 N 
ATOM      8  C5   11 d          13.958  41.277  28.628  0.00  0.00     0.214 C 
ATOM      9  O3   11 d          14.631  42.261  29.095  0.00  0.00    -0.274 OA
ATOM     10  C6   11 d          14.073  39.940  29.292  0.00  0.00     0.117 C 
ATOM     11  H7   11 d          12.565  40.619  27.111  0.00  0.00     0.163 HD
ENDBRANCH   1   7
BRANCH   1  12
ATOM     12  C7   11 d          13.163  42.535  25.281  0.00  0.00     0.074 C 
BRANCH  12  13
ATOM     13  C8   11 d          14.163  43.422  24.573  0.00  0.00    -0.056 A 
ATOM     14  C9   11 d          13.724  44.397  23.653  0.00  0.00     0.010 A 
ATOM     15  C10  11 d          14.651  45.205  22.977  0.00  0.00     0.037 A 
ATOM     16  C11  11 d          16.025  45.038  23.198  0.00  0.00     0.065 A 
ATOM     17  C12  11 d          16.469  44.091  24.133  0.00  0.00     0.037 A 
ATOM     18  C13  11 d          15.546  43.272  24.802  0.00  0.00     0.010 A 
BRANCH  16  19
ATOM     19  O4   11 d          16.951  45.905  22.579  0.00  0.00    -0.361 OA
ATOM     20  H17  11 d          16.817  46.818  23.048  0.00  0.00     0.217 HD
ENDBRANCH  16  19
ENDBRANCH  12  13
ENDBRANCH   1  12
TORSDOF 7
ENDMDL
MODEL 6
REMARK VINA RESULT:      -5.8      2.646      5.411
REMARK  7 active torsions:
REMARK  status: ('A' for Active; 'I' for Inactive)
REMARK    1  A    between atoms: C1_1  and  O2_3 
REMARK    2  A    between atoms: C1_1  and  C4_6 
REMARK    3  A    between atoms: O2_3  and  C2_4 
REMARK    4  A    between atoms: C4_6  and  N1_7 
REMARK    5  A    between atoms: C4_6  and  C7_11 
REMARK       I    between atoms: N1_7  and  C5_8 
REMARK    6  A    between atoms: C7_11  and  C8_12 
REMARK    7  A    between atoms: C11_15  and  O4_18 
ROOT
ATOM      1  C4   11 d          12.347  45.283  25.250  0.00  0.00     0.188 C 
ENDROOT
BRANCH   1   2
ATOM      2  C1   11 d          13.656  44.707  25.775  0.00  0.00     0.282 C 
ATOM      3  O1   11 d          13.911  44.749  27.006  0.00  0.00    -0.263 OA
BRANCH   2   4
ATOM      4  O2   11 d          14.696  44.327  24.886  0.00  0.00    -0.320 OA
BRANCH   4   5
ATOM      5  C2   11 d          15.061  42.947  25.141  0.00  0.00     0.174 C 
ATOM      6  C3   11 d          14.013  42.030  24.533  0.00  0.00     0.034 C 
ENDBRANCH   4   5
ENDBRANCH   2   4
ENDBRANCH   1   2
BRANCH   1   7
ATOM      7  N1   11 d          12.292  45.288  23.749  0.00  0.00    -0.347 N 
ATOM      8  C5   11 d          12.146  46.495  23.009  0.00  0.00     0.214 C 
ATOM      9  O3   11 d          12.065  47.618  23.619  0.00  0.00    -0.274 OA
ATOM     10  C6   11 d          12.074  46.477  21.514  0.00  0.00     0.117 C 
ATOM     11  H7   11 d          12.358  44.354  23.218  0.00  0.00     0.163 HD
ENDBRANCH   1   7
BRANCH   1  12
ATOM     12  C7   11 d          11.078  44.565  25.759  0.00  0.00     0.074 C 
BRANCH  12  13
ATOM     13  C8   11 d           9.956  45.470  26.216  0.00  0.00    -0.056 A 
ATOM     14  C9   11 d           9.284  46.293  25.289  0.00  0.00     0.010 A 
ATOM     15  C10  11 d           8.258  47.152  25.714  0.00  0.00     0.037 A 
ATOM     16  C11  11 d           7.903  47.210  27.069  0.00  0.00     0.065 A 
ATOM     17  C12  11 d           8.546  46.373  27.993  0.00  0.00     0.037 A 
ATOM     18  C13  11 d           9.582  45.522  27.574  0.00  0.00     0.010 A 
BRANCH  16  19
ATOM     19  O4   11 d           6.818  48.012  27.482  0.00  0.00    -0.361 OA
ATOM     20  H17  11 d           7.126  48.442  28.372  0.00  0.00     0.217 HD
ENDBRANCH  16  19
ENDBRANCH  12  13
ENDBRANCH   1  12
TORSDOF 7
ENDMDL
MODEL 7
REMARK VINA RESULT:      -5.7      1.515      2.382
REMARK  7 active torsions:
REMARK  status: ('A' for Active; 'I' for Inactive)
REMARK    1  A    between atoms: C1_1  and  O2_3 
REMARK    2  A    between atoms: C1_1  and  C4_6 
REMARK    3  A    between atoms: O2_3  and  C2_4 
REMARK    4  A    between atoms: C4_6  and  N1_7 
REMARK    5  A    between atoms: C4_6  and  C7_11 
REMARK       I    between atoms: N1_7  and  C5_8 
REMARK    6  A    between atoms: C7_11  and  C8_12 
REMARK    7  A    between atoms: C11_15  and  O4_18 
ROOT
ATOM      1  C4   11 d          13.686  42.896  26.541  0.00  0.00     0.188 C 
ENDROOT
BRANCH   1   2
ATOM      2  C1   11 d          14.237  41.698  27.304  0.00  0.00     0.282 C 
ATOM      3  O1   11 d          15.416  41.311  27.097  0.00  0.00    -0.263 OA
BRANCH   2   4
ATOM      4  O2   11 d          13.383  40.868  28.077  0.00  0.00    -0.320 OA
BRANCH   4   5
ATOM      5  C2   11 d          14.065  40.487  29.297  0.00  0.00     0.174 C 
ATOM      6  C3   11 d          13.942  41.611  30.313  0.00  0.00     0.034 C 
ENDBRANCH   4   5
ENDBRANCH   2   4
ENDBRANCH   1   2
BRANCH   1   7
ATOM      7  N1   11 d          12.836  43.779  27.410  0.00  0.00    -0.347 N 
ATOM      8  C5   11 d          11.453  43.985  27.143  0.00  0.00     0.214 C 
ATOM      9  O3   11 d          10.897  43.406  26.145  0.00  0.00    -0.274 OA
ATOM     10  C6   11 d          10.628  44.883  28.010  0.00  0.00     0.117 C 
ATOM     11  H7   11 d          13.285  44.274  28.253  0.00  0.00     0.163 HD
ENDBRANCH   1   7
BRANCH   1  12
ATOM     12  C7   11 d          14.760  43.788  25.881  0.00  0.00     0.074 C 
BRANCH  12  13
ATOM     13  C8   11 d          14.433  44.281  24.489  0.00  0.00    -0.056 A 
ATOM     14  C9   11 d          15.197  43.850  23.384  0.00  0.00     0.010 A 
ATOM     15  C10  11 d          14.911  44.323  22.094  0.00  0.00     0.037 A 
ATOM     16  C11  11 d          13.872  45.243  21.895  0.00  0.00     0.065 A 
ATOM     17  C12  11 d          13.089  45.654  22.984  0.00  0.00     0.037 A 
ATOM     18  C13  11 d          13.380  45.193  24.277  0.00  0.00     0.010 A 
BRANCH  16  19
ATOM     19  O4   11 d          13.534  45.655  20.588  0.00  0.00    -0.361 OA
ATOM     20  H17  11 d          14.002  46.571  20.467  0.00  0.00     0.217 HD
ENDBRANCH  16  19
ENDBRANCH  12  13
ENDBRANCH   1  12
TORSDOF 7
ENDMDL
MODEL 8
REMARK VINA RESULT:      -5.6      1.984      5.803
REMARK  7 active torsions:
REMARK  status: ('A' for Active; 'I' for Inactive)
REMARK    1  A    between atoms: C1_1  and  O2_3 
REMARK    2  A    between atoms: C1_1  and  C4_6 
REMARK    3  A    between atoms: O2_3  and  C2_4 
REMARK    4  A    between atoms: C4_6  and  N1_7 
REMARK    5  A    between atoms: C4_6  and  C7_11 
REMARK       I    between atoms: N1_7  and  C5_8 
REMARK    6  A    between atoms: C7_11  and  C8_12 
REMARK    7  A    between atoms: C11_15  and  O4_18 
ROOT
ATOM      1  C4   11 d          12.599  44.630  24.938  0.00  0.00     0.188 C 
ENDROOT
BRANCH   1   2
ATOM      2  C1   11 d          11.237  45.306  25.039  0.00  0.00     0.282 C 
ATOM      3  O1   11 d          10.954  46.265  24.275  0.00  0.00    -0.263 OA
BRANCH   2   4
ATOM      4  O2   11 d          10.364  45.030  26.124  0.00  0.00    -0.320 OA
BRANCH   4   5
ATOM      5  C2   11 d           9.009  45.381  25.747  0.00  0.00     0.174 C 
ATOM      6  C3   11 d           8.308  46.020  26.934  0.00  0.00     0.034 C 
ENDBRANCH   4   5
ENDBRANCH   2   4
ENDBRANCH   1   2
BRANCH   1   7
ATOM      7  N1   11 d          13.401  45.144  23.776  0.00  0.00    -0.347 N 
ATOM      8  C5   11 d          14.234  44.285  23.003  0.00  0.00     0.214 C 
ATOM      9  O3   11 d          14.309  43.038  23.284  0.00  0.00    -0.274 OA
ATOM     10  C6   11 d          15.039  44.820  21.861  0.00  0.00     0.117 C 
ATOM     11  H7   11 d          13.351  46.189  23.525  0.00  0.00     0.163 HD
ENDBRANCH   1   7
BRANCH   1  12
ATOM     12  C7   11 d          13.477  44.759  26.202  0.00  0.00     0.074 C 
BRANCH  12  13
ATOM     13  C8   11 d          13.755  43.467  26.937  0.00  0.00    -0.056 A 
ATOM     14  C9   11 d          14.948  42.754  26.699  0.00  0.00     0.010 A 
ATOM     15  C10  11 d          15.198  41.543  27.362  0.00  0.00     0.037 A 
ATOM     16  C11  11 d          14.253  41.022  28.257  0.00  0.00     0.065 A 
ATOM     17  C12  11 d          13.076  41.738  28.522  0.00  0.00     0.037 A 
ATOM     18  C13  11 d          12.817  42.944  27.851  0.00  0.00     0.010 A 
BRANCH  16  19
ATOM     19  O4   11 d          14.541  39.846  28.984  0.00  0.00    -0.361 OA
ATOM     20  H17  11 d          15.071  39.248  28.326  0.00  0.00     0.217 HD
ENDBRANCH  16  19
ENDBRANCH  12  13
ENDBRANCH   1  12
TORSDOF 7
ENDMDL
MODEL 9
REMARK VINA RESULT:      -5.6      1.524      2.028
REMARK  7 active torsions:
REMARK  status: ('A' for Active; 'I' for Inactive)
REMARK    1  A    between atoms: C1_1  and  O2_3 
REMARK    2  A    between atoms: C1_1  and  C4_6 
REMARK    3  A    between atoms: O2_3  and  C2_4 
REMARK    4  A    between atoms: C4_6  and  N1_7 
REMARK    5  A    between atoms: C4_6  and  C7_11 
REMARK       I    between atoms: N1_7  and  C5_8 
REMARK    6  A    between atoms: C7_11  and  C8_12 
REMARK    7  A    between atoms: C11_15  and  O4_18 
ROOT
ATOM      1  C4   11 d          12.887  43.629  26.284  0.00  0.00     0.188 C 
ENDROOT
BRANCH   1   2
ATOM      2  C1   11 d          13.601  42.391  26.812  0.00  0.00     0.282 C 
ATOM      3  O1   11 d          14.462  41.812  26.102  0.00  0.00    -0.263 OA
BRANCH   2   4
ATOM      4  O2   11 d          13.157  41.742  27.995  0.00  0.00    -0.320 OA
BRANCH   4   5
ATOM      5  C2   11 d          14.285  41.554  28.887  0.00  0.00     0.174 C 
ATOM      6  C3   11 d          14.320  40.107  29.351  0.00  0.00     0.034 C 
ENDBRANCH   4   5
ENDBRANCH   2   4
ENDBRANCH   1   2
BRANCH   1   7
ATOM      7  N1   11 d          12.109  44.336  27.357  0.00  0.00    -0.347 N 
ATOM      8  C5   11 d          10.728  44.645  27.200  0.00  0.00     0.214 C 
ATOM      9  O3   11 d          10.113  44.315  26.127  0.00  0.00    -0.274 OA
ATOM     10  C6   11 d           9.975  45.367  28.273  0.00  0.00     0.117 C 
ATOM     11  H7   11 d          12.609  44.622  28.266  0.00  0.00     0.163 HD
ENDBRANCH   1   7
BRANCH   1  12
ATOM     12  C7   11 d          13.814  44.671  25.620  0.00  0.00     0.074 C 
BRANCH  12  13
ATOM     13  C8   11 d          13.355  45.188  24.274  0.00  0.00    -0.056 A 
ATOM     14  C9   11 d          12.277  46.093  24.190  0.00  0.00     0.010 A 
ATOM     15  C10  11 d          11.834  46.556  22.941  0.00  0.00     0.037 A 
ATOM     16  C11  11 d          12.450  46.108  21.764  0.00  0.00     0.065 A 
ATOM     17  C12  11 d          13.542  45.230  21.841  0.00  0.00     0.037 A 
ATOM     18  C13  11 d          13.980  44.755  23.087  0.00  0.00     0.010 A 
BRANCH  16  19
ATOM     19  O4   11 d          12.057  46.636  20.515  0.00  0.00    -0.361 OA
ATOM     20  H17  11 d          12.900  46.565  19.918  0.00  0.00     0.217 HD
ENDBRANCH  16  19
ENDBRANCH  12  13
ENDBRANCH   1  12
TORSDOF 7
ENDMDL
MODEL 10
REMARK VINA RESULT:      -5.5      2.161      4.407
REMARK  7 active torsions:
REMARK  status: ('A' for Active; 'I' for Inactive)
REMARK    1  A    between atoms: C1_1  and  O2_3 
REMARK    2  A    between atoms: C1_1  and  C4_6 
REMARK    3  A    between atoms: O2_3  and  C2_4 
REMARK    4  A    between atoms: C4_6  and  N1_7 
REMARK    5  A    between atoms: C4_6  and  C7_11 
REMARK       I    between atoms: N1_7  and  C5_8 
REMARK    6  A    between atoms: C7_11  and  C8_12 
REMARK    7  A    between atoms: C11_15  and  O4_18 
ROOT
ATOM      1  C4   11 d          14.199  43.218  25.728  0.00  0.00     0.188 C 
ENDROOT
BRANCH   1   2
ATOM      2  C1   11 d          12.883  42.663  25.197  0.00  0.00     0.282 C 
ATOM      3  O1   11 d          12.863  42.028  24.112  0.00  0.00    -0.263 OA
BRANCH   2   4
ATOM      4  O2   11 d          11.644  43.038  25.781  0.00  0.00    -0.320 OA
BRANCH   4   5
ATOM      5  C2   11 d          11.856  44.165  26.667  0.00  0.00     0.174 C 
ATOM      6  C3   11 d          10.560  44.947  26.802  0.00  0.00     0.034 C 
ENDBRANCH   4   5
ENDBRANCH   2   4
ENDBRANCH   1   2
BRANCH   1   7
ATOM      7  N1   11 d          15.105  42.135  26.242  0.00  0.00    -0.347 N 
ATOM      8  C5   11 d          14.784  41.380  27.405  0.00  0.00     0.214 C 
ATOM      9  O3   11 d          13.696  41.609  28.041  0.00  0.00    -0.274 OA
ATOM     10  C6   11 d          15.708  40.317  27.911  0.00  0.00     0.117 C 
ATOM     11  H7   11 d          16.023  41.928  25.721  0.00  0.00     0.163 HD
ENDBRANCH   1   7
BRANCH   1  12
ATOM     12  C7   11 d          15.004  44.052  24.707  0.00  0.00     0.074 C 
BRANCH  12  13
ATOM     13  C8   11 d          14.183  44.780  23.667  0.00  0.00    -0.056 A 
ATOM     14  C9   11 d          14.433  44.579  22.294  0.00  0.00     0.010 A 
ATOM     15  C10  11 d          13.688  45.271  21.326  0.00  0.00     0.037 A 
ATOM     16  C11  11 d          12.697  46.182  21.719  0.00  0.00     0.065 A 
ATOM     17  C12  11 d          12.422  46.366  23.081  0.00  0.00     0.037 A 
ATOM     18  C13  11 d          13.173  45.685  24.052  0.00  0.00     0.010 A 
BRANCH  16  19
ATOM     19  O4   11 d          11.894  46.815  20.746  0.00  0.00    -0.361 OA
ATOM     20  H17  11 d          11.423  46.042  20.243  0.00  0.00     0.217 HD
ENDBRANCH  16  19
ENDBRANCH  12  13
ENDBRANCH   1  12
TORSDOF 7
ENDMDL
