MODEL 1
REMARK VINA RESULT:      -9.4      0.000      0.000
REMARK  2 active torsions:
REMARK  status: ('A' for Active; 'I' for Inactive)
REMARK    1  A    between atoms: C13_17  and  S1_21 
REMARK    2  A    between atoms: O3_22  and  S1_21 
ROOT
ATOM      1  C1  <1> d          11.366  42.749  29.396  0.00  0.00     0.042 A 
ATOM      2  C2  <1> d          12.615  42.200  29.057  0.00  0.00     0.045 A 
ATOM      3  C3  <1> d          13.285  41.269  29.897  0.00  0.00     0.013 A 
ATOM      4  C4  <1> d          12.642  40.906  31.118  0.00  0.00     0.001 A 
ATOM      5  C5  <1> d          11.367  41.466  31.470  0.00  0.00     0.002 A 
ATOM      6  C6  <1> d          10.712  42.401  30.608  0.00  0.00     0.024 A 
ATOM      7  C7  <1> d          12.917  42.836  27.732  0.00  0.00     0.209 A 
ATOM      8  O1  <1> d          13.918  42.624  27.081  0.00  0.00    -0.285 OA
ATOM      9  C8  <1> d          11.766  43.710  27.422  0.00  0.00     0.092 A 
ATOM     10  C9  <1> d          11.470  44.530  26.372  0.00  0.00     0.071 A 
ATOM     11  C10 <1> d          10.233  45.335  26.256  0.00  0.00     0.251 A 
ATOM     12  O2  <1> d           9.348  45.370  27.111  0.00  0.00    -0.270 OA
ATOM     13  N1  <1> d          10.241  45.986  25.132  0.00  0.00    -0.281 N 
ATOM     14  N2  <1> d          10.945  43.594  28.447  0.00  0.00    -0.310 N 
ATOM     15  C11 <1> d          12.202  44.843  25.068  0.00  0.00     0.012 A 
ATOM     16  C12 <1> d          13.429  44.463  24.450  0.00  0.00     0.040 A 
ATOM     17  C13 <1> d          13.747  45.004  23.162  0.00  0.00     0.117 A 
ATOM     18  C14 <1> d          12.859  45.903  22.513  0.00  0.00     0.031 A 
ATOM     19  C15 <1> d          11.641  46.284  23.139  0.00  0.00     0.026 A 
ATOM     20  C16 <1> d          11.338  45.740  24.411  0.00  0.00     0.042 A 
ATOM     21  H5  <1> d           9.509  46.601  24.839  0.00  0.00     0.155 HD
ATOM     22  H6  <1> d          10.081  44.095  28.510  0.00  0.00     0.152 HD
ENDROOT
BRANCH  17  23
ATOM     23  S1  <1> d          15.278  44.503  22.421  0.00  0.00     0.110 S 
ATOM     24  O4  <1> d          16.291  45.493  22.714  0.00  0.00    -0.142 OA
ATOM     25  O5  <1> d          14.985  44.176  21.040  0.00  0.00    -0.142 OA
BRANCH  23  26
ATOM     26  O3  <1> d          15.624  43.229  23.103  0.00  0.00    -0.250 OA
ATOM     27  H10 <1> d          14.889  42.977  23.732  0.00  0.00     0.245 HD
ENDBRANCH  23  26
ENDBRANCH  17  23
TORSDOF 2
ENDMDL
MODEL 2
REMARK VINA RESULT:      -9.4      2.525      3.718
REMARK  2 active torsions:
REMARK  status: ('A' for Active; 'I' for Inactive)
REMARK    1  A    between atoms: C13_17  and  S1_21 
REMARK    2  A    between atoms: O3_22  and  S1_21 
ROOT
ATOM      1  C1  <1> d          12.824  42.340  29.668  0.00  0.00     0.042 A 
ATOM      2  C2  <1> d          11.727  43.189  29.438  0.00  0.00     0.045 A 
ATOM      3  C3  <1> d          10.699  43.376  30.404  0.00  0.00     0.013 A 
ATOM      4  C4  <1> d          10.816  42.658  31.632  0.00  0.00     0.001 A 
ATOM      5  C5  <1> d          11.933  41.788  31.870  0.00  0.00     0.002 A 
ATOM      6  C6  <1> d          12.955  41.617  30.884  0.00  0.00     0.024 A 
ATOM      7  C7  <1> d          11.995  43.725  28.063  0.00  0.00     0.209 A 
ATOM      8  O1  <1> d          11.278  44.511  27.481  0.00  0.00    -0.285 OA
ATOM      9  C8  <1> d          13.271  43.120  27.626  0.00  0.00     0.092 A 
ATOM     10  C9  <1> d          14.015  43.227  26.487  0.00  0.00     0.071 A 
ATOM     11  C10 <1> d          15.293  42.519  26.248  0.00  0.00     0.251 A 
ATOM     12  O2  <1> d          15.809  41.736  27.045  0.00  0.00    -0.270 OA
ATOM     13  N1  <1> d          15.763  42.851  25.083  0.00  0.00    -0.281 N 
ATOM     14  N2  <1> d          13.650  42.335  28.615  0.00  0.00    -0.310 N 
ATOM     15  C11 <1> d          13.840  44.053  25.213  0.00  0.00     0.012 A 
ATOM     16  C12 <1> d          12.884  44.974  24.697  0.00  0.00     0.040 A 
ATOM     17  C13 <1> d          13.113  45.553  23.407  0.00  0.00     0.117 A 
ATOM     18  C14 <1> d          14.270  45.216  22.654  0.00  0.00     0.031 A 
ATOM     19  C15 <1> d          15.216  44.290  23.172  0.00  0.00     0.026 A 
ATOM     20  C16 <1> d          14.978  43.726  24.450  0.00  0.00     0.042 A 
ATOM     21  H5  <1> d          16.616  42.491  24.703  0.00  0.00     0.155 HD
ATOM     22  H6  <1> d          14.484  41.784  28.581  0.00  0.00     0.152 HD
ENDROOT
BRANCH  17  23
ATOM     23  S1  <1> d          11.905  46.701  22.800  0.00  0.00     0.110 S 
ATOM     24  O4  <1> d          12.000  46.770  21.359  0.00  0.00    -0.142 OA
ATOM     25  O5  <1> d          12.055  47.914  23.579  0.00  0.00    -0.142 OA
BRANCH  23  26
ATOM     26  O3  <1> d          10.598  46.104  23.179  0.00  0.00    -0.250 OA
ATOM     27  H10 <1> d           9.924  46.830  23.307  0.00  0.00     0.245 HD
ENDBRANCH  23  26
ENDBRANCH  17  23
TORSDOF 2
ENDMDL
MODEL 3
REMARK VINA RESULT:      -9.2      2.785      6.864
REMARK  2 active torsions:
REMARK  status: ('A' for Active; 'I' for Inactive)
REMARK    1  A    between atoms: C13_17  and  S1_21 
REMARK    2  A    between atoms: O3_22  and  S1_21 
ROOT
ATOM      1  C1  <1> d          13.222  44.671  23.598  0.00  0.00     0.042 A 
ATOM      2  C2  <1> d          14.196  43.659  23.641  0.00  0.00     0.045 A 
ATOM      3  C3  <1> d          15.092  43.423  22.562  0.00  0.00     0.013 A 
ATOM      4  C4  <1> d          14.965  44.258  21.411  0.00  0.00     0.001 A 
ATOM      5  C5  <1> d          13.969  45.292  21.361  0.00  0.00     0.002 A 
ATOM      6  C6  <1> d          13.080  45.510  22.460  0.00  0.00     0.024 A 
ATOM      7  C7  <1> d          13.984  43.041  24.992  0.00  0.00     0.209 A 
ATOM      8  O1  <1> d          14.635  42.118  25.435  0.00  0.00    -0.285 OA
ATOM      9  C8  <1> d          12.878  43.793  25.620  0.00  0.00     0.092 A 
ATOM     10  C9  <1> d          12.249  43.697  26.827  0.00  0.00     0.071 A 
ATOM     11  C10 <1> d          11.137  44.571  27.268  0.00  0.00     0.251 A 
ATOM     12  O2  <1> d          10.645  45.464  26.579  0.00  0.00    -0.270 OA
ATOM     13  N1  <1> d          10.776  44.241  28.472  0.00  0.00    -0.281 N 
ATOM     14  N2  <1> d          12.508  44.693  24.730  0.00  0.00    -0.310 N 
ATOM     15  C11 <1> d          12.467  42.789  28.036  0.00  0.00     0.012 A 
ATOM     16  C12 <1> d          13.337  41.715  28.384  0.00  0.00     0.040 A 
ATOM     17  C13 <1> d          13.209  41.118  29.680  0.00  0.00     0.117 A 
ATOM     18  C14 <1> d          12.235  41.585  30.602  0.00  0.00     0.031 A 
ATOM     19  C15 <1> d          11.365  42.652  30.246  0.00  0.00     0.026 A 
ATOM     20  C16 <1> d          11.503  43.234  28.962  0.00  0.00     0.042 A 
ATOM     21  H5  <1> d          10.038  44.691  28.975  0.00  0.00     0.155 HD
ATOM     22  H6  <1> d          11.759  45.336  24.888  0.00  0.00     0.152 HD
ENDROOT
BRANCH  17  23
ATOM     23  S1  <1> d          14.315  39.789  30.079  0.00  0.00     0.110 S 
ATOM     24  O4  <1> d          15.284  39.647  29.015  0.00  0.00    -0.142 OA
ATOM     25  O5  <1> d          13.489  38.655  30.441  0.00  0.00    -0.142 OA
BRANCH  23  26
ATOM     26  O3  <1> d          15.004  40.235  31.316  0.00  0.00    -0.250 OA
ATOM     27  H10 <1> d          14.906  41.225  31.415  0.00  0.00     0.245 HD
ENDBRANCH  23  26
ENDBRANCH  17  23
TORSDOF 2
ENDMDL
MODEL 4
REMARK VINA RESULT:      -9.1      3.391      7.652
REMARK  2 active torsions:
REMARK  status: ('A' for Active; 'I' for Inactive)
REMARK    1  A    between atoms: C13_17  and  S1_21 
REMARK    2  A    between atoms: O3_22  and  S1_21 
ROOT
ATOM      1  C1  <1> d          14.575  43.944  24.146  0.00  0.00     0.042 A 
ATOM      2  C2  <1> d          13.396  44.707  24.198  0.00  0.00     0.045 A 
ATOM      3  C3  <1> d          12.927  45.451  23.080  0.00  0.00     0.013 A 
ATOM      4  C4  <1> d          13.707  45.401  21.885  0.00  0.00     0.001 A 
ATOM      5  C5  <1> d          14.914  44.625  21.829  0.00  0.00     0.002 A 
ATOM      6  C6  <1> d          15.365  43.884  22.967  0.00  0.00     0.024 A 
ATOM      7  C7  <1> d          12.908  44.484  25.598  0.00  0.00     0.209 A 
ATOM      8  O1  <1> d          11.896  44.970  26.058  0.00  0.00    -0.285 OA
ATOM      9  C8  <1> d          13.882  43.573  26.234  0.00  0.00     0.092 A 
ATOM     10  C9  <1> d          13.971  43.019  27.479  0.00  0.00     0.071 A 
ATOM     11  C10 <1> d          15.054  42.111  27.920  0.00  0.00     0.251 A 
ATOM     12  O2  <1> d          16.007  41.778  27.215  0.00  0.00    -0.270 OA
ATOM     13  N1  <1> d          14.837  41.738  29.145  0.00  0.00    -0.281 N 
ATOM     14  N2  <1> d          14.801  43.339  25.319  0.00  0.00    -0.310 N 
ATOM     15  C11 <1> d          13.067  43.093  28.709  0.00  0.00     0.012 A 
ATOM     16  C12 <1> d          11.851  43.744  29.065  0.00  0.00     0.040 A 
ATOM     17  C13 <1> d          11.314  43.530  30.376  0.00  0.00     0.117 A 
ATOM     18  C14 <1> d          11.980  42.686  31.304  0.00  0.00     0.031 A 
ATOM     19  C15 <1> d          13.197  42.045  30.945  0.00  0.00     0.026 A 
ATOM     20  C16 <1> d          13.715  42.264  29.644  0.00  0.00     0.042 A 
ATOM     21  H5  <1> d          15.441  41.127  29.657  0.00  0.00     0.155 HD
ATOM     22  H6  <1> d          15.599  42.759  25.486  0.00  0.00     0.152 HD
ENDROOT
BRANCH  17  23
ATOM     23  S1  <1> d           9.795  44.352  30.780  0.00  0.00     0.110 S 
ATOM     24  O4  <1> d          10.055  45.349  31.795  0.00  0.00    -0.142 OA
ATOM     25  O5  <1> d           8.817  43.315  31.039  0.00  0.00    -0.142 OA
BRANCH  23  26
ATOM     26  O3  <1> d           9.388  45.027  29.521  0.00  0.00    -0.250 OA
ATOM     27  H10 <1> d          10.060  44.833  28.807  0.00  0.00     0.245 HD
ENDBRANCH  23  26
ENDBRANCH  17  23
TORSDOF 2
ENDMDL
MODEL 5
REMARK VINA RESULT:      -8.9      3.509      7.431
REMARK  2 active torsions:
REMARK  status: ('A' for Active; 'I' for Inactive)
REMARK    1  A    between atoms: C13_17  and  S1_21 
REMARK    2  A    between atoms: O3_22  and  S1_21 
ROOT
ATOM      1  C1  <1> d          13.661  44.276  25.736  0.00  0.00     0.042 A 
ATOM      2  C2  <1> d          14.753  43.406  25.576  0.00  0.00     0.045 A 
ATOM      3  C3  <1> d          15.647  43.508  24.473  0.00  0.00     0.013 A 
ATOM      4  C4  <1> d          15.392  44.537  23.517  0.00  0.00     0.001 A 
ATOM      5  C5  <1> d          14.275  45.426  23.676  0.00  0.00     0.002 A 
ATOM      6  C6  <1> d          13.391  45.304  24.793  0.00  0.00     0.024 A 
ATOM      7  C7  <1> d          14.649  42.506  26.771  0.00  0.00     0.209 A 
ATOM      8  O1  <1> d          15.419  41.601  27.018  0.00  0.00    -0.285 OA
ATOM      9  C8  <1> d          13.473  42.970  27.536  0.00  0.00     0.092 A 
ATOM     10  C9  <1> d          12.888  42.553  28.696  0.00  0.00     0.071 A 
ATOM     11  C10 <1> d          11.687  43.173  29.303  0.00  0.00     0.251 A 
ATOM     12  O2  <1> d          11.073  44.118  28.808  0.00  0.00    -0.270 OA
ATOM     13  N1  <1> d          11.397  42.564  30.413  0.00  0.00    -0.281 N 
ATOM     14  N2  <1> d          12.975  43.978  26.847  0.00  0.00    -0.310 N 
ATOM     15  C11 <1> d          13.244  41.453  29.695  0.00  0.00     0.012 A 
ATOM     16  C12 <1> d          14.248  40.449  29.819  0.00  0.00     0.040 A 
ATOM     17  C13 <1> d          14.224  39.591  30.966  0.00  0.00     0.117 A 
ATOM     18  C14 <1> d          13.220  39.735  31.961  0.00  0.00     0.031 A 
ATOM     19  C15 <1> d          12.218  40.734  31.827  0.00  0.00     0.026 A 
ATOM     20  C16 <1> d          12.254  41.578  30.689  0.00  0.00     0.042 A 
ATOM     21  H5  <1> d          10.620  42.806  30.994  0.00  0.00     0.155 HD
ATOM     22  H6  <1> d          12.156  44.477  27.130  0.00  0.00     0.152 HD
ENDROOT
BRANCH  17  23
ATOM     23  S1  <1> d          15.493  38.358  31.089  0.00  0.00     0.110 S 
ATOM     24  O4  <1> d          16.177  38.257  29.819  0.00  0.00    -0.142 OA
ATOM     25  O5  <1> d          14.874  37.178  31.656  0.00  0.00    -0.142 OA
BRANCH  23  26
ATOM     26  O3  <1> d          16.432  38.888  32.111  0.00  0.00    -0.250 OA
ATOM     27  H10 <1> d          17.306  39.106  31.680  0.00  0.00     0.245 HD
ENDBRANCH  23  26
ENDBRANCH  17  23
TORSDOF 2
ENDMDL
MODEL 6
REMARK VINA RESULT:      -8.8      2.421      3.615
REMARK  2 active torsions:
REMARK  status: ('A' for Active; 'I' for Inactive)
REMARK    1  A    between atoms: C13_17  and  S1_21 
REMARK    2  A    between atoms: O3_22  and  S1_21 
ROOT
ATOM      1  C1  <1> d          13.960  39.335  30.534  0.00  0.00     0.042 A 
ATOM      2  C2  <1> d          15.064  39.159  29.683  0.00  0.00     0.045 A 
ATOM      3  C3  <1> d          16.042  38.152  29.910  0.00  0.00     0.013 A 
ATOM      4  C4  <1> d          15.866  37.314  31.052  0.00  0.00     0.001 A 
ATOM      5  C5  <1> d          14.741  37.492  31.926  0.00  0.00     0.002 A 
ATOM      6  C6  <1> d          13.770  38.512  31.676  0.00  0.00     0.024 A 
ATOM      7  C7  <1> d          14.864  40.221  28.642  0.00  0.00     0.209 A 
ATOM      8  O1  <1> d          15.607  40.411  27.702  0.00  0.00    -0.285 OA
ATOM      9  C8  <1> d          13.613  40.921  29.003  0.00  0.00     0.092 A 
ATOM     10  C9  <1> d          12.927  41.959  28.442  0.00  0.00     0.071 A 
ATOM     11  C10 <1> d          11.664  42.519  28.977  0.00  0.00     0.251 A 
ATOM     12  O2  <1> d          11.111  42.121  30.002  0.00  0.00    -0.270 OA
ATOM     13  N1  <1> d          11.252  43.478  28.204  0.00  0.00    -0.281 N 
ATOM     14  N2  <1> d          13.187  40.342  30.108  0.00  0.00    -0.310 N 
ATOM     15  C11 <1> d          13.162  42.793  27.184  0.00  0.00     0.012 A 
ATOM     16  C12 <1> d          14.141  42.857  26.150  0.00  0.00     0.040 A 
ATOM     17  C13 <1> d          13.974  43.823  25.105  0.00  0.00     0.117 A 
ATOM     18  C14 <1> d          12.857  44.700  25.098  0.00  0.00     0.031 A 
ATOM     19  C15 <1> d          11.889  44.636  26.136  0.00  0.00     0.026 A 
ATOM     20  C16 <1> d          12.065  43.675  27.163  0.00  0.00     0.042 A 
ATOM     21  H5  <1> d          10.420  44.008  28.369  0.00  0.00     0.155 HD
ATOM     22  H6  <1> d          12.358  40.631  30.587  0.00  0.00     0.152 HD
ENDROOT
BRANCH  17  23
ATOM     23  S1  <1> d          15.209  43.868  23.832  0.00  0.00     0.110 S 
ATOM     24  O4  <1> d          15.468  45.245  23.475  0.00  0.00    -0.142 OA
ATOM     25  O5  <1> d          14.782  42.939  22.805  0.00  0.00    -0.142 OA
BRANCH  23  26
ATOM     26  O3  <1> d          16.420  43.288  24.465  0.00  0.00    -0.250 OA
ATOM     27  H10 <1> d          16.740  43.895  25.191  0.00  0.00     0.245 HD
ENDBRANCH  23  26
ENDBRANCH  17  23
TORSDOF 2
ENDMDL
MODEL 7
REMARK VINA RESULT:      -8.8      2.727      4.718
REMARK  2 active torsions:
REMARK  status: ('A' for Active; 'I' for Inactive)
REMARK    1  A    between atoms: C13_17  and  S1_21 
REMARK    2  A    between atoms: O3_22  and  S1_21 
ROOT
ATOM      1  C1  <1> d          15.040  41.110  27.361  0.00  0.00     0.042 A 
ATOM      2  C2  <1> d          13.788  41.136  28.000  0.00  0.00     0.045 A 
ATOM      3  C3  <1> d          13.468  40.260  29.075  0.00  0.00     0.013 A 
ATOM      4  C4  <1> d          14.473  39.335  29.487  0.00  0.00     0.001 A 
ATOM      5  C5  <1> d          15.753  39.303  28.836  0.00  0.00     0.002 A 
ATOM      6  C6  <1> d          16.052  40.194  27.758  0.00  0.00     0.024 A 
ATOM      7  C7  <1> d          13.058  42.224  27.271  0.00  0.00     0.209 A 
ATOM      8  O1  <1> d          11.924  42.577  27.520  0.00  0.00    -0.285 OA
ATOM      9  C8  <1> d          13.998  42.744  26.257  0.00  0.00     0.092 A 
ATOM     10  C9  <1> d          13.906  43.724  25.311  0.00  0.00     0.071 A 
ATOM     11  C10 <1> d          14.992  44.094  24.375  0.00  0.00     0.251 A 
ATOM     12  O2  <1> d          16.089  43.537  24.334  0.00  0.00    -0.270 OA
ATOM     13  N1  <1> d          14.600  45.076  23.621  0.00  0.00    -0.281 N 
ATOM     14  N2  <1> d          15.096  42.026  26.388  0.00  0.00    -0.310 N 
ATOM     15  C11 <1> d          12.795  44.708  24.948  0.00  0.00     0.012 A 
ATOM     16  C12 <1> d          11.468  44.984  25.390  0.00  0.00     0.040 A 
ATOM     17  C13 <1> d          10.741  46.045  24.760  0.00  0.00     0.117 A 
ATOM     18  C14 <1> d          11.327  46.807  23.714  0.00  0.00     0.031 A 
ATOM     19  C15 <1> d          12.648  46.521  23.273  0.00  0.00     0.026 A 
ATOM     20  C16 <1> d          13.357  45.471  23.906  0.00  0.00     0.042 A 
ATOM     21  H5  <1> d          15.166  45.491  22.907  0.00  0.00     0.155 HD
ATOM     22  H6  <1> d          15.901  42.156  25.809  0.00  0.00     0.152 HD
ENDROOT
BRANCH  17  23
ATOM     23  S1  <1> d           9.095  46.364  25.341  0.00  0.00     0.110 S 
ATOM     24  O4  <1> d           8.927  47.789  25.522  0.00  0.00    -0.142 OA
ATOM     25  O5  <1> d           8.872  45.477  26.465  0.00  0.00    -0.142 OA
BRANCH  23  26
ATOM     26  O3  <1> d           8.213  45.900  24.241  0.00  0.00    -0.250 OA
ATOM     27  H10 <1> d           7.760  46.686  23.823  0.00  0.00     0.245 HD
ENDBRANCH  23  26
ENDBRANCH  17  23
TORSDOF 2
ENDMDL
MODEL 8
REMARK VINA RESULT:      -8.5      2.289      4.485
REMARK  2 active torsions:
REMARK  status: ('A' for Active; 'I' for Inactive)
REMARK    1  A    between atoms: C13_17  and  S1_21 
REMARK    2  A    between atoms: O3_22  and  S1_21 
ROOT
ATOM      1  C1  <1> d           8.968  45.554  28.293  0.00  0.00     0.042 A 
ATOM      2  C2  <1> d           8.817  46.090  27.002  0.00  0.00     0.045 A 
ATOM      3  C3  <1> d           7.682  46.865  26.632  0.00  0.00     0.013 A 
ATOM      4  C4  <1> d           6.683  47.080  27.628  0.00  0.00     0.001 A 
ATOM      5  C5  <1> d           6.832  46.531  28.947  0.00  0.00     0.002 A 
ATOM      6  C6  <1> d           7.983  45.756  29.296  0.00  0.00     0.024 A 
ATOM      7  C7  <1> d          10.060  45.634  26.297  0.00  0.00     0.209 A 
ATOM      8  O1  <1> d          10.328  45.892  25.142  0.00  0.00    -0.285 OA
ATOM      9  C8  <1> d          10.838  44.863  27.289  0.00  0.00     0.092 A 
ATOM     10  C9  <1> d          12.036  44.213  27.238  0.00  0.00     0.071 A 
ATOM     11  C10 <1> d          12.649  43.486  28.374  0.00  0.00     0.251 A 
ATOM     12  O2  <1> d          12.127  43.371  29.482  0.00  0.00    -0.270 OA
ATOM     13  N1  <1> d          13.797  43.000  28.011  0.00  0.00    -0.281 N 
ATOM     14  N2  <1> d          10.114  44.869  28.392  0.00  0.00    -0.310 N 
ATOM     15  C11 <1> d          13.079  44.054  26.132  0.00  0.00     0.012 A 
ATOM     16  C12 <1> d          13.221  44.464  24.774  0.00  0.00     0.040 A 
ATOM     17  C13 <1> d          14.411  44.095  24.066  0.00  0.00     0.117 A 
ATOM     18  C14 <1> d          15.429  43.336  24.702  0.00  0.00     0.031 A 
ATOM     19  C15 <1> d          15.277  42.924  26.054  0.00  0.00     0.026 A 
ATOM     20  C16 <1> d          14.096  43.297  26.744  0.00  0.00     0.042 A 
ATOM     21  H5  <1> d          14.391  42.465  28.612  0.00  0.00     0.155 HD
ATOM     22  H6  <1> d          10.398  44.403  29.230  0.00  0.00     0.152 HD
ENDROOT
BRANCH  17  23
ATOM     23  S1  <1> d          14.556  44.629  22.381  0.00  0.00     0.110 S 
ATOM     24  O4  <1> d          13.460  45.521  22.073  0.00  0.00    -0.142 OA
ATOM     25  O5  <1> d          14.744  43.436  21.581  0.00  0.00    -0.142 OA
BRANCH  23  26
ATOM     26  O3  <1> d          15.833  45.386  22.336  0.00  0.00    -0.250 OA
ATOM     27  H10 <1> d          16.595  44.747  22.232  0.00  0.00     0.245 HD
ENDBRANCH  23  26
ENDBRANCH  17  23
TORSDOF 2
ENDMDL
MODEL 9
REMARK VINA RESULT:      -8.5      1.587      2.184
REMARK  2 active torsions:
REMARK  status: ('A' for Active; 'I' for Inactive)
REMARK    1  A    between atoms: C13_17  and  S1_21 
REMARK    2  A    between atoms: O3_22  and  S1_21 
ROOT
ATOM      1  C1  <1> d          13.421  40.935  29.368  0.00  0.00     0.042 A 
ATOM      2  C2  <1> d          14.447  40.545  28.490  0.00  0.00     0.045 A 
ATOM      3  C3  <1> d          15.331  39.470  28.787  0.00  0.00     0.013 A 
ATOM      4  C4  <1> d          15.142  38.792  30.028  0.00  0.00     0.001 A 
ATOM      5  C5  <1> d          14.096  39.188  30.930  0.00  0.00     0.002 A 
ATOM      6  C6  <1> d          13.220  40.272  30.608  0.00  0.00     0.024 A 
ATOM      7  C7  <1> d          14.292  41.498  27.341  0.00  0.00     0.209 A 
ATOM      8  O1  <1> d          14.991  41.498  26.350  0.00  0.00    -0.285 OA
ATOM      9  C8  <1> d          13.143  42.365  27.677  0.00  0.00     0.092 A 
ATOM     10  C9  <1> d          12.532  43.400  27.031  0.00  0.00     0.071 A 
ATOM     11  C10 <1> d          11.368  44.149  27.556  0.00  0.00     0.251 A 
ATOM     12  O2  <1> d          10.842  43.933  28.648  0.00  0.00    -0.270 OA
ATOM     13  N1  <1> d          11.008  45.053  26.695  0.00  0.00    -0.281 N 
ATOM     14  N2  <1> d          12.730  41.964  28.863  0.00  0.00    -0.310 N 
ATOM     15  C11 <1> d          12.773  44.055  25.672  0.00  0.00     0.012 A 
ATOM     16  C12 <1> d          13.687  43.895  24.590  0.00  0.00     0.040 A 
ATOM     17  C13 <1> d          13.555  44.748  23.447  0.00  0.00     0.117 A 
ATOM     18  C14 <1> d          12.535  45.735  23.390  0.00  0.00     0.031 A 
ATOM     19  C15 <1> d          11.631  45.893  24.475  0.00  0.00     0.026 A 
ATOM     20  C16 <1> d          11.771  45.042  25.600  0.00  0.00     0.042 A 
ATOM     21  H5  <1> d          10.246  45.686  26.837  0.00  0.00     0.155 HD
ATOM     22  H6  <1> d          11.965  42.393  29.345  0.00  0.00     0.152 HD
ENDROOT
BRANCH  17  23
ATOM     23  S1  <1> d          14.707  44.515  22.118  0.00  0.00     0.110 S 
ATOM     24  O4  <1> d          14.174  45.125  20.920  0.00  0.00    -0.142 OA
ATOM     25  O5  <1> d          15.047  43.107  22.104  0.00  0.00    -0.142 OA
BRANCH  23  26
ATOM     26  O3  <1> d          15.925  45.251  22.545  0.00  0.00    -0.250 OA
ATOM     27  H10 <1> d          16.539  44.627  23.028  0.00  0.00     0.245 HD
ENDBRANCH  23  26
ENDBRANCH  17  23
TORSDOF 2
ENDMDL
MODEL 10
REMARK VINA RESULT:      -8.0      3.904      7.884
REMARK  2 active torsions:
REMARK  status: ('A' for Active; 'I' for Inactive)
REMARK    1  A    between atoms: C13_17  and  S1_21 
REMARK    2  A    between atoms: O3_22  and  S1_21 
ROOT
ATOM      1  C1  <1> d          11.894  43.505  27.311  0.00  0.00     0.042 A 
ATOM      2  C2  <1> d          13.078  42.904  26.849  0.00  0.00     0.045 A 
ATOM      3  C3  <1> d          13.659  43.243  25.595  0.00  0.00     0.013 A 
ATOM      4  C4  <1> d          12.989  44.225  24.806  0.00  0.00     0.001 A 
ATOM      5  C5  <1> d          11.777  44.839  25.273  0.00  0.00     0.002 A 
ATOM      6  C6  <1> d          11.212  44.483  26.538  0.00  0.00     0.024 A 
ATOM      7  C7  <1> d          13.434  41.959  27.957  0.00  0.00     0.209 A 
ATOM      8  O1  <1> d          14.410  41.238  27.958  0.00  0.00    -0.285 OA
ATOM      9  C8  <1> d          12.391  42.123  28.991  0.00  0.00     0.092 A 
ATOM     10  C9  <1> d          12.181  41.544  30.208  0.00  0.00     0.071 A 
ATOM     11  C10 <1> d          11.046  41.860  31.106  0.00  0.00     0.251 A 
ATOM     12  O2  <1> d          10.154  42.664  30.835  0.00  0.00    -0.270 OA
ATOM     13  N1  <1> d          11.145  41.160  32.196  0.00  0.00    -0.281 N 
ATOM     14  N2  <1> d          11.553  43.021  28.512  0.00  0.00    -0.310 N 
ATOM     15  C11 <1> d          12.972  40.512  31.012  0.00  0.00     0.012 A 
ATOM     16  C12 <1> d          14.163  39.751  30.834  0.00  0.00     0.040 A 
ATOM     17  C13 <1> d          14.576  38.865  31.882  0.00  0.00     0.117 A 
ATOM     18  C14 <1> d          13.814  38.747  33.075  0.00  0.00     0.031 A 
ATOM     19  C15 <1> d          12.623  39.504  33.243  0.00  0.00     0.026 A 
ATOM     20  C16 <1> d          12.227  40.377  32.199  0.00  0.00     0.042 A 
ATOM     21  H5  <1> d          10.486  41.203  32.947  0.00  0.00     0.155 HD
ATOM     22  H6  <1> d          10.733  43.316  29.003  0.00  0.00     0.152 HD
ENDROOT
BRANCH  17  23
ATOM     23  S1  <1> d          16.067  37.939  31.628  0.00  0.00     0.110 S 
ATOM     24  O4  <1> d          15.767  36.528  31.716  0.00  0.00    -0.142 OA
ATOM     25  O5  <1> d          17.066  38.508  32.510  0.00  0.00    -0.142 OA
BRANCH  23  26
ATOM     26  O3  <1> d          16.480  38.268  30.239  0.00  0.00    -0.250 OA
ATOM     27  H10 <1> d          16.700  37.425  29.749  0.00  0.00     0.245 HD
ENDBRANCH  23  26
ENDBRANCH  17  23
TORSDOF 2
ENDMDL
