REMARK  3 active torsions:
REMARK  status: ('A' for Active; 'I' for Inactive)
REMARK    1  A    between atoms: C9_12  and  C11_14 
REMARK    2  A    between atoms: C11_14  and  S1_15 
REMARK    3  A    between atoms: S1_15  and  C12_16 
ROOT
ATOM      1  C1   11 d          -2.066   3.871  -3.665  0.00  0.00     0.268 A 
ATOM      2  N1   11 d          -1.302   3.258  -4.617  0.00  0.00    -0.107 N 
ATOM      3  C2   11 d          -0.174   2.587  -4.291  0.00  0.00     0.715 A 
ATOM      4  N2   11 d           0.409   2.088  -5.399  0.00  0.00    -0.187 N 
ATOM      5  C3   11 d          -0.372   2.441  -6.440  0.00  0.00     0.077 A 
ATOM      6  C4   11 d          -1.449   3.175  -5.960  0.00  0.00     0.087 A 
ATOM      7  C5   11 d          -2.434   3.669  -6.829  0.00  0.00     0.033 A 
ATOM      8  C6   11 d          -2.301   3.398  -8.207  0.00  0.00     0.002 A 
ATOM      9  C7   11 d          -1.202   2.650  -8.691  0.00  0.00     0.002 A 
ATOM     10  C8   11 d          -0.221   2.163  -7.803  0.00  0.00     0.032 A 
ATOM     11  N3   11 d           0.242   2.472  -3.005  0.00  0.00    -0.068 NA
ATOM     12  C9   11 d          -0.512   3.023  -2.002  0.00  0.00     0.068 A 
ATOM     13  C10  11 d          -1.666   3.773  -2.322  0.00  0.00     0.104 A 
ATOM     14  O1   11 d          -3.101   4.516  -3.968  0.00  0.00    -0.267 OA
ATOM     15  H1   11 d           1.295   1.530  -5.435  0.00  0.00     0.184 HD
ENDROOT
BRANCH  12  16
ATOM     16  C11  11 d          -0.011   2.954  -0.590  0.00  0.00     0.139 C 
BRANCH  16  17
ATOM     17  S1   11 d          -0.834   1.543   0.247  0.00  0.00    -0.124 SA
BRANCH  17  18
ATOM     18  C12  11 d          -0.032   1.825   1.844  0.00  0.00     0.001 A 
ATOM     19  C13  11 d          -0.709   2.523   2.856  0.00  0.00     0.019 A 
ATOM     20  C14  11 d          -0.101   2.716   4.106  0.00  0.00     0.008 A 
ATOM     21  C15  11 d           1.178   2.186   4.366  0.00  0.00    -0.062 A 
ATOM     22  C16  11 d           1.869   1.524   3.331  0.00  0.00     0.008 A 
ATOM     23  C18  11 d           1.863   2.465   5.675  0.00  0.00     0.048 C 
ATOM     24  C17  11 d           1.260   1.331   2.082  0.00  0.00     0.019 A 
ENDBRANCH  17  18
ENDBRANCH  16  17
ENDBRANCH  12  16
TORSDOF 3
