REMARK  5 active torsions:
REMARK  status: ('A' for Active; 'I' for Inactive)
REMARK    1  A    between atoms: C2_2  and  N3_14 
REMARK       I    between atoms: N3_14  and  C12_15 
REMARK    2  A    between atoms: C12_15  and  C13_17 
REMARK    3  A    between atoms: C13_17  and  N4_18 
REMARK    4  A    between atoms: N4_18  and  C14_19 
REMARK    5  A    between atoms: N4_18  and  S1_35 
ROOT
ATOM      1  N4   11 d           1.489   0.797  -3.548  0.00  0.00    -0.267 N 
ENDROOT
BRANCH   1   2
ATOM      2  C13  11 d           1.350   2.155  -3.140  0.00  0.00     0.244 C 
BRANCH   2   3
ATOM      3  C12  11 d           0.826   2.482  -1.759  0.00  0.00     0.241 C 
ATOM      4  N3   11 d          -0.488   2.153  -1.299  0.00  0.00    -0.319 N 
ATOM      5  H12  11 d          -1.131   1.643  -1.994  0.00  0.00     0.169 HD
ATOM      6  O1   11 d           1.639   3.097  -0.992  0.00  0.00    -0.271 OA
BRANCH   4   7
ATOM      7  C2   11 d          -1.065   2.451   0.046  0.00  0.00     0.129 A 
ATOM      8  C1   11 d          -2.402   2.228   0.356  0.00  0.00     0.295 A 
ATOM      9  N2   11 d          -2.674   2.711   1.587  0.00  0.00    -0.217 N 
ATOM     10  O4   11 d          -3.260   1.757  -0.436  0.00  0.00    -0.264 OA
ATOM     11  N1   11 d          -1.562   3.131   2.132  0.00  0.00    -0.289 N 
ATOM     12  C4   11 d          -3.984   2.811   2.171  0.00  0.00     0.060 A 
ATOM     13  C3   11 d          -0.541   3.027   1.227  0.00  0.00     0.057 A 
ATOM     14  C10  11 d          -1.434   3.649   3.506  0.00  0.00     0.178 C 
ATOM     15  C11  11 d           0.899   3.254   1.606  0.00  0.00     0.072 C 
ATOM     16  C5   11 d          -4.587   1.707   2.797  0.00  0.00     0.031 A 
ATOM     17  C9   11 d          -4.639   4.056   2.173  0.00  0.00     0.031 A 
ATOM     18  C6   11 d          -5.837   1.850   3.424  0.00  0.00     0.002 A 
ATOM     19  C7   11 d          -6.486   3.095   3.424  0.00  0.00     0.000 A 
ATOM     20  C8   11 d          -5.888   4.198   2.796  0.00  0.00     0.002 A 
ENDBRANCH   4   7
ENDBRANCH   2   3
ENDBRANCH   1   2
BRANCH   1  21
ATOM     21  C14  11 d           0.941   0.362  -4.754  0.00  0.00     0.045 A 
ATOM     22  C15  11 d           1.351   1.028  -5.924  0.00  0.00     0.031 A 
ATOM     23  C16  11 d           1.040   0.528  -7.192  0.00  0.00     0.010 A 
ATOM     24  C17  11 d           0.334  -0.689  -7.348  0.00  0.00    -0.049 A 
ATOM     25  C18  11 d           0.052  -1.303  -8.738  0.00  0.00    -0.012 C 
ATOM     26  C28  11 d          -0.135  -1.317  -6.164  0.00  0.00     0.010 A 
ATOM     27  C19  11 d           0.946  -2.568  -8.919  0.00  0.00     0.019 C 
ATOM     28  C23  11 d           0.378  -0.341  -9.933  0.00  0.00     0.019 C 
ATOM     29  C26  11 d          -1.446  -1.726  -8.889  0.00  0.00     0.019 C 
ATOM     30  C20  11 d           0.682  -3.247 -10.288  0.00  0.00    -0.013 C 
ATOM     31  C21  11 d           1.004  -2.260 -11.434  0.00  0.00     0.009 C 
ATOM     32  C27  11 d          -0.805  -3.661 -10.379  0.00  0.00     0.009 C 
ATOM     33  C22  11 d           0.108  -1.008 -11.300  0.00  0.00    -0.013 C 
ATOM     34  C24  11 d          -1.378  -1.415 -11.389  0.00  0.00     0.009 C 
ATOM     35  C25  11 d          -1.703  -2.407 -10.253  0.00  0.00    -0.013 C 
ATOM     36  C29  11 d           0.149  -0.793  -4.890  0.00  0.00     0.031 A 
ENDBRANCH   1  21
BRANCH   1  37
ATOM     37  S1   11 d           2.351  -0.326  -2.599  0.00  0.00     0.229 S 
ATOM     38  O2   11 d           3.494  -0.888  -3.447  0.00  0.00    -0.206 OA
ATOM     39  O3   11 d           1.454  -1.515  -2.247  0.00  0.00    -0.206 OA
ATOM     40  C30  11 d           3.050   0.308  -1.048  0.00  0.00     0.186 C 
ENDBRANCH   1  37
TORSDOF 5
