REMARK  0 active torsions:
REMARK  status: ('A' for Active; 'I' for Inactive)
ROOT
ATOM      1  C1   11 d           6.778  -1.415  -4.560  0.00  0.00     0.067 A 
ATOM      2  C2   11 d           6.041  -2.519  -4.244  0.00  0.00     0.093 A 
ATOM      3  C3   11 d           5.355  -2.850  -3.065  0.00  0.00     0.269 A 
ATOM      4  N1   11 d           4.719  -4.058  -3.148  0.00  0.00    -0.278 N 
ATOM      5  C4   11 d           5.008  -4.627  -4.338  0.00  0.00     0.178 A 
ATOM      6  N2   11 d           4.622  -5.808  -4.728  0.00  0.00    -0.223 NA
ATOM      7  C5   11 d           3.859  -6.609  -3.784  0.00  0.00     0.075 C 
ATOM      8  C6   11 d           3.456  -7.989  -4.200  0.00  0.00    -0.001 A 
ATOM      9  C7   11 d           2.446  -8.675  -3.480  0.00  0.00    -0.045 A 
ATOM     10  C8   11 d           2.125 -10.003  -3.822  0.00  0.00     0.008 A 
ATOM     11  C9   11 d           2.744 -10.623  -4.916  0.00  0.00     0.001 A 
ATOM     12  C10  11 d           3.704  -9.930  -5.663  0.00  0.00     0.001 A 
ATOM     13  C11  11 d           4.062  -8.621  -5.307  0.00  0.00     0.014 A 
ATOM     14  C12  11 d           1.814  -8.033  -2.270  0.00  0.00     0.044 C 
ATOM     15  C13  11 d           2.764  -7.047  -1.580  0.00  0.00     0.044 C 
ATOM     16  C14  11 d           3.515  -6.138  -2.546  0.00  0.00    -0.022 C 
ATOM     17  C15  11 d           3.863  -4.703  -2.125  0.00  0.00     0.166 C 
ATOM     18  C16  11 d           2.616  -3.858  -1.852  0.00  0.00     0.010 A 
ATOM     19  S1   11 d           2.617  -2.456  -1.305  0.00  0.00    -0.104 SA
ATOM     20  C17  11 d           1.171  -2.084  -1.223  0.00  0.00     0.050 A 
ATOM     21  C18  11 d           0.427  -3.160  -1.678  0.00  0.00     0.008 A 
ATOM     22  C19  11 d           1.274  -4.204  -2.050  0.00  0.00     0.017 A 
ATOM     23  S2   11 d           5.858  -3.706  -5.149  0.00  0.00    -0.045 SA
ATOM     24  O1   11 d           5.493  -2.241  -1.977  0.00  0.00    -0.266 OA
ATOM     25  C20  11 d           7.688  -1.273  -5.738  0.00  0.00     0.258 A 
ATOM     26  O2   11 d           7.850  -2.120  -6.683  0.00  0.00    -0.267 OA
ATOM     27  N3   11 d           8.384  -0.061  -5.691  0.00  0.00    -0.322 N 
ATOM     28  C21  11 d           7.928   0.623  -4.507  0.00  0.00     0.046 A 
ATOM     29  C22  11 d           6.942  -0.111  -3.841  0.00  0.00     0.008 A 
ATOM     30  C23  11 d           6.266   0.487  -2.756  0.00  0.00     0.015 A 
ATOM     31  C24  11 d           6.674   1.755  -2.298  0.00  0.00     0.001 A 
ATOM     32  C25  11 d           7.719   2.444  -2.940  0.00  0.00     0.002 A 
ATOM     33  C26  11 d           8.344   1.885  -4.066  0.00  0.00     0.030 A 
ATOM     34  H13  11 d           9.109   0.302  -6.395  0.00  0.00     0.169 HD
ENDROOT
TORSDOF 0
