REMARK  1 active torsions:
REMARK  status: ('A' for Active; 'I' for Inactive)
REMARK    1  A    between atoms: C4_5  and  N3_8 
ROOT
ATOM      1  C1   11 d           0.708  -4.136   3.353  0.00  0.00    -0.013 A 
ATOM      2  C2   11 d           0.886  -2.872   3.990  0.00  0.00     0.099 A 
ATOM      3  C3   11 d           1.749  -2.963   5.081  0.00  0.00     0.129 A 
ATOM      4  N1   11 d           2.117  -1.936   5.883  0.00  0.00    -0.221 NA
ATOM      5  C4   11 d           1.555  -0.771   5.524  0.00  0.00     0.140 A 
ATOM      6  C5   11 d           0.677  -0.662   4.445  0.00  0.00     0.167 A 
ATOM      7  N2   11 d           0.314  -1.685   3.634  0.00  0.00    -0.254 NA
ATOM      8  S1   11 d           2.324  -4.548   5.321  0.00  0.00    -0.072 SA
ATOM      9  C6   11 d           1.433  -5.130   3.989  0.00  0.00    -0.007 A 
ATOM     10  C7   11 d           1.483  -6.564   3.564  0.00  0.00     0.047 C 
ATOM     11  C8   11 d           0.335  -6.877   2.591  0.00  0.00     0.005 C 
ATOM     12  C9   11 d           0.169  -5.778   1.531  0.00  0.00     0.005 C 
ATOM     13  C10  11 d          -0.161  -4.418   2.167  0.00  0.00     0.042 C 
ENDROOT
BRANCH   5  14
ATOM     14  N3   11 d           1.843   0.436   6.256  0.00  0.00    -0.383 N 
ATOM     15  H    11 d           2.518   0.408   7.102  0.00  0.00     0.157 HD
ATOM     16  H    11 d           1.385   1.371   5.959  0.00  0.00     0.157 HD
ENDBRANCH   5  14
TORSDOF 1
