REMARK  2 active torsions:
REMARK  status: ('A' for Active; 'I' for Inactive)
REMARK    1  A    between atoms: C4_8  and  O5_18 
REMARK    2  A    between atoms: C10_15  and  O4_17 
ROOT
ATOM      1  C1   11 d          -1.686  -3.136  -2.825  0.00  0.00     0.095 C 
ATOM      2  C2   11 d          -3.018  -3.751  -2.677  0.00  0.00     0.263 C 
ATOM      3  O1   11 d          -3.569  -3.779  -1.598  0.00  0.00    -0.267 OA
ATOM      4  N1   11 d          -3.551  -4.264  -3.823  0.00  0.00    -0.275 N 
ATOM      5  C3   11 d          -2.827  -4.591  -4.927  0.00  0.00     0.327 C 
ATOM      6  O2   11 d          -3.285  -5.310  -5.789  0.00  0.00    -0.247 OA
ATOM      7  N2   11 d          -1.581  -4.071  -5.000  0.00  0.00    -0.283 N 
ATOM      8  C4   11 d          -1.195  -2.955  -4.218  0.00  0.00     0.291 C 
ATOM      9  O3   11 d           0.225  -2.853  -4.356  0.00  0.00    -0.291 OA
ATOM     10  C5   11 d           0.896  -2.299  -3.295  0.00  0.00     0.087 A 
ATOM     11  C6   11 d           0.356  -2.238  -2.001  0.00  0.00    -0.002 A 
ATOM     12  C7   11 d          -0.968  -2.793  -1.749  0.00  0.00     0.034 C 
ATOM     13  C8   11 d           1.112  -1.683  -0.966  0.00  0.00     0.017 A 
ATOM     14  C9   11 d           2.394  -1.194  -1.224  0.00  0.00     0.037 A 
ATOM     15  C10  11 d           2.920  -1.273  -2.510  0.00  0.00     0.068 A 
ATOM     16  C11  11 d           2.184  -1.828  -3.551  0.00  0.00     0.074 A 
ATOM     17  H    11 d          -4.622  -4.421  -3.856  0.00  0.00     0.173 HD
ATOM     18  H    11 d          -0.861  -4.518  -5.674  0.00  0.00     0.170 HD
ENDROOT
BRANCH   8  19
ATOM     19  O5   11 d          -1.790  -1.789  -4.763  0.00  0.00    -0.344 OA
ATOM     20  H    11 d          -2.885  -1.882  -4.719  0.00  0.00     0.215 HD
ENDBRANCH   8  19
BRANCH  15  21
ATOM     21  O4   11 d           4.112  -0.820  -2.730  0.00  0.00    -0.361 OA
ATOM     22  H    11 d           4.675  -0.396  -1.934  0.00  0.00     0.217 HD
ENDBRANCH  15  21
TORSDOF 2
