REMARK  4 active torsions:
REMARK  status: ('A' for Active; 'I' for Inactive)
REMARK    1  A    between atoms: N3_19  and  C15_20 
REMARK    2  A    between atoms: C15_20  and  C16_21 
REMARK       I    between atoms: C16_21  and  N4_22 
REMARK    3  A    between atoms: N4_22  and  C17_23 
REMARK    4  A    between atoms: N4_22  and  C19_25 
ROOT
ATOM      1  C1   11 d          -3.649  -4.445  -3.747  0.00  0.00     0.268 A 
ATOM      2  C2   11 d          -4.012  -3.158  -3.326  0.00  0.00     0.105 A 
ATOM      3  C3   11 d          -3.036  -2.194  -3.133  0.00  0.00     0.093 A 
ATOM      4  C4   11 d          -3.630  -0.996  -2.733  0.00  0.00     0.031 A 
ATOM      5  C5   11 d          -5.008  -1.165  -2.657  0.00  0.00     0.111 A 
ATOM      6  N1   11 d          -5.837  -0.150  -2.296  0.00  0.00    -0.244 NA
ATOM      7  C6   11 d          -5.318   1.092  -2.023  0.00  0.00     0.047 A 
ATOM      8  C7   11 d          -3.912   1.297  -2.031  0.00  0.00    -0.009 A 
ATOM      9  C8   11 d          -3.056   0.240  -2.418  0.00  0.00     0.028 A 
ATOM     10  C9   11 d          -3.328   2.633  -1.635  0.00  0.00     0.209 C 
ATOM     11  O1   11 d          -4.312   3.677  -1.370  0.00  0.00    -0.376 OA
ATOM     12  C10  11 d          -5.528   3.239  -0.693  0.00  0.00     0.059 C 
ATOM     13  C11  11 d          -6.245   2.182  -1.564  0.00  0.00     0.097 C 
ATOM     14  C12  11 d          -6.420   4.486  -0.566  0.00  0.00     0.046 C 
ATOM     15  C13  11 d          -5.229   2.712   0.728  0.00  0.00     0.046 C 
ATOM     16  S1   11 d          -5.370  -2.575  -3.030  0.00  0.00    -0.062 SA
ATOM     17  N2   11 d          -1.724  -2.478  -3.332  0.00  0.00    -0.241 NA
ATOM     18  C14  11 d          -1.364  -3.727  -3.758  0.00  0.00     0.213 A 
ATOM     19  N3   11 d          -2.312  -4.708  -4.001  0.00  0.00    -0.299 N 
ATOM     20  O3   11 d          -4.531  -5.327  -3.918  0.00  0.00    -0.266 OA
ENDROOT
BRANCH  19  21
ATOM     21  C15  11 d          -1.867  -6.017  -4.556  0.00  0.00     0.236 C 
BRANCH  21  22
ATOM     22  C16  11 d          -1.220  -5.904  -5.923  0.00  0.00     0.238 C 
ATOM     23  N4   11 d          -0.755  -7.040  -6.646  0.00  0.00    -0.351 N 
ATOM     24  O2   11 d          -1.101  -4.756  -6.480  0.00  0.00    -0.272 OA
BRANCH  23  25
ATOM     25  C17  11 d          -1.556  -7.389  -7.874  0.00  0.00     0.121 C 
ATOM     26  C18  11 d          -1.492  -8.828  -8.382  0.00  0.00     0.026 C 
ENDBRANCH  23  25
BRANCH  23  27
ATOM     27  C19  11 d           0.467  -7.786  -6.199  0.00  0.00     0.121 C 
ATOM     28  C20  11 d           0.180  -9.106  -5.480  0.00  0.00     0.026 C 
ENDBRANCH  23  27
ENDBRANCH  21  22
ENDBRANCH  19  21
TORSDOF 4
