MODEL 1
REMARK VINA RESULT:      -8.5      0.000      0.000
REMARK  1 active torsions:
REMARK  status: ('A' for Active; 'I' for Inactive)
REMARK    1  A    between atoms: C12_16  and  O3_17 
ROOT
ATOM      1  C1   11 d         -10.537 208.284 114.353  0.00  0.00     0.262 A 
ATOM      2  N1   11 d         -10.993 207.887 113.069  0.00  0.00    -0.251 N 
ATOM      3  C2   11 d         -10.019 208.414 112.187  0.00  0.00     0.233 A 
ATOM      4  O1   11 d         -10.035 208.290 110.917  0.00  0.00    -0.273 OA
ATOM      5  C3   11 d          -8.919 209.148 112.861  0.00  0.00     0.146 A 
ATOM      6  C4   11 d          -9.264 209.095 114.365  0.00  0.00     0.289 A 
ATOM      7  N2   11 d          -8.128 208.598 115.244  0.00  0.00    -0.054 N 
ATOM      8  C5   11 d          -8.532 208.369 116.682  0.00  0.00     0.262 C 
ATOM      9  C6   11 d          -7.339 208.041 117.587  0.00  0.00     0.195 C 
ATOM     10  O2   11 d          -6.333 209.075 117.465  0.00  0.00    -0.388 OA
ATOM     11  C7   11 d          -5.822 209.164 116.116  0.00  0.00     0.195 C 
ATOM     12  C8   11 d          -6.963 209.562 115.178  0.00  0.00     0.262 C 
ATOM     13  C9   11 d         -12.219 207.097 112.721  0.00  0.00     0.045 A 
ATOM     14  C10  11 d         -12.551 206.785 111.375  0.00  0.00     0.033 A 
ATOM     15  C11  11 d         -13.711 206.066 111.048  0.00  0.00     0.039 A 
ATOM     16  C12  11 d         -14.566 205.606 112.053  0.00  0.00     0.068 A 
ATOM     17  C14  11 d         -14.280 205.916 113.386  0.00  0.00     0.039 A 
ATOM     18  C15  11 d         -13.121 206.634 113.717  0.00  0.00     0.033 A 
ATOM     19  O4   11 d         -11.143 208.008 115.441  0.00  0.00    -0.270 OA
ATOM     20  H4   11 d          -7.797 207.649 114.859  0.00  0.00     0.281 HD
ENDROOT
BRANCH  16  21
ATOM     21  O3   11 d         -15.790 204.978 111.712  0.00  0.00    -0.356 OA
ATOM     22  C13  11 d         -16.880 205.928 111.821  0.00  0.00     0.210 C 
ENDBRANCH  16  21
TORSDOF 1
ENDMDL
MODEL 2
REMARK VINA RESULT:      -8.1      1.691      7.432
REMARK  1 active torsions:
REMARK  status: ('A' for Active; 'I' for Inactive)
REMARK    1  A    between atoms: C12_16  and  O3_17 
ROOT
ATOM      1  C1   11 d         -11.818 206.893 112.931  0.00  0.00     0.262 A 
ATOM      2  N1   11 d         -10.808 207.688 112.330  0.00  0.00    -0.251 N 
ATOM      3  C2   11 d         -11.102 207.618 110.946  0.00  0.00     0.233 A 
ATOM      4  O1   11 d         -10.438 208.197 110.024  0.00  0.00    -0.273 OA
ATOM      5  C3   11 d         -12.295 206.797 110.617  0.00  0.00     0.146 A 
ATOM      6  C4   11 d         -12.799 206.260 111.975  0.00  0.00     0.289 A 
ATOM      7  N2   11 d         -14.278 206.506 112.226  0.00  0.00    -0.054 N 
ATOM      8  C5   11 d         -14.719 206.151 113.627  0.00  0.00     0.262 C 
ATOM      9  C6   11 d         -16.239 206.236 113.809  0.00  0.00     0.195 C 
ATOM     10  O2   11 d         -16.898 205.422 112.810  0.00  0.00    -0.388 OA
ATOM     11  C7   11 d         -16.610 205.884 111.470  0.00  0.00     0.195 C 
ATOM     12  C8   11 d         -15.108 205.751 111.212  0.00  0.00     0.262 C 
ATOM     13  C9   11 d          -9.688 208.429 112.997  0.00  0.00     0.045 A 
ATOM     14  C10  11 d          -8.739 209.180 112.250  0.00  0.00     0.033 A 
ATOM     15  C11  11 d          -7.678 209.854 112.873  0.00  0.00     0.039 A 
ATOM     16  C12  11 d          -7.540 209.828 114.263  0.00  0.00     0.068 A 
ATOM     17  C14  11 d          -8.443 209.079 115.024  0.00  0.00     0.039 A 
ATOM     18  C15  11 d          -9.506 208.405 114.406  0.00  0.00     0.033 A 
ATOM     19  O4   11 d         -11.911 206.690 114.187  0.00  0.00    -0.270 OA
ATOM     20  H4   11 d         -14.470 207.557 112.097  0.00  0.00     0.281 HD
ENDROOT
BRANCH  16  21
ATOM     21  O3   11 d          -6.405 210.417 114.876  0.00  0.00    -0.356 OA
ATOM     22  C13  11 d          -5.193 209.875 114.294  0.00  0.00     0.210 C 
ENDBRANCH  16  21
TORSDOF 1
ENDMDL
MODEL 3
REMARK VINA RESULT:      -8.0      1.510      1.834
REMARK  1 active torsions:
REMARK  status: ('A' for Active; 'I' for Inactive)
REMARK    1  A    between atoms: C12_16  and  O3_17 
ROOT
ATOM      1  C1   11 d          -9.632 208.491 114.708  0.00  0.00     0.262 A 
ATOM      2  N1   11 d          -9.673 208.269 113.306  0.00  0.00    -0.251 N 
ATOM      3  C2   11 d          -8.381 208.644 112.867  0.00  0.00     0.233 A 
ATOM      4  O1   11 d          -7.976 208.600 111.658  0.00  0.00    -0.273 OA
ATOM      5  C3   11 d          -7.477 209.103 113.951  0.00  0.00     0.146 A 
ATOM      6  C4   11 d          -8.326 209.031 115.239  0.00  0.00     0.289 A 
ATOM      7  N2   11 d          -7.664 208.267 116.375  0.00  0.00    -0.054 N 
ATOM      8  C5   11 d          -8.575 208.038 117.559  0.00  0.00     0.262 C 
ATOM      9  C6   11 d          -7.842 207.428 118.759  0.00  0.00     0.195 C 
ATOM     10  O2   11 d          -6.699 208.247 119.104  0.00  0.00    -0.388 OA
ATOM     11  C7   11 d          -5.744 208.313 118.020  0.00  0.00     0.195 C 
ATOM     12  C8   11 d          -6.407 208.983 116.815  0.00  0.00     0.262 C 
ATOM     13  C9   11 d         -10.816 207.759 112.480  0.00  0.00     0.045 A 
ATOM     14  C10  11 d         -10.707 207.599 111.072  0.00  0.00     0.033 A 
ATOM     15  C11  11 d         -11.784 207.145 110.295  0.00  0.00     0.039 A 
ATOM     16  C12  11 d         -12.998 206.805 110.898  0.00  0.00     0.068 A 
ATOM     17  C14  11 d         -13.145 206.973 112.278  0.00  0.00     0.039 A 
ATOM     18  C15  11 d         -12.071 207.426 113.058  0.00  0.00     0.033 A 
ATOM     19  O4   11 d         -10.615 208.277 115.493  0.00  0.00    -0.270 OA
ATOM     20  H4   11 d          -7.383 207.296 116.006  0.00  0.00     0.281 HD
ENDROOT
BRANCH  16  21
ATOM     21  O3   11 d         -14.114 206.454 110.097  0.00  0.00    -0.356 OA
ATOM     22  C13  11 d         -15.144 207.467 110.214  0.00  0.00     0.210 C 
ENDBRANCH  16  21
TORSDOF 1
ENDMDL
MODEL 4
REMARK VINA RESULT:      -8.0      1.132      1.224
REMARK  1 active torsions:
REMARK  status: ('A' for Active; 'I' for Inactive)
REMARK    1  A    between atoms: C12_16  and  O3_17 
ROOT
ATOM      1  C1   11 d         -10.880 208.358 115.260  0.00  0.00     0.262 A 
ATOM      2  N1   11 d         -11.470 207.985 114.024  0.00  0.00    -0.251 N 
ATOM      3  C2   11 d         -10.447 208.225 113.075  0.00  0.00     0.233 A 
ATOM      4  O1   11 d         -10.548 208.022 111.820  0.00  0.00    -0.273 OA
ATOM      5  C3   11 d          -9.184 208.743 113.658  0.00  0.00     0.146 A 
ATOM      6  C4   11 d          -9.463 208.868 115.171  0.00  0.00     0.289 A 
ATOM      7  N2   11 d          -8.421 208.194 116.051  0.00  0.00    -0.054 N 
ATOM      8  C5   11 d          -8.799 208.157 117.514  0.00  0.00     0.262 C 
ATOM      9  C6   11 d          -7.665 207.637 118.404  0.00  0.00     0.195 C 
ATOM     10  O2   11 d          -6.465 208.414 118.174  0.00  0.00    -0.388 OA
ATOM     11  C7   11 d          -6.010 208.297 116.806  0.00  0.00     0.195 C 
ATOM     12  C8   11 d          -7.080 208.872 115.876  0.00  0.00     0.262 C 
ATOM     13  C9   11 d         -12.853 207.462 113.775  0.00  0.00     0.045 A 
ATOM     14  C10  11 d         -13.307 207.141 112.466  0.00  0.00     0.033 A 
ATOM     15  C11  11 d         -14.609 206.674 112.231  0.00  0.00     0.039 A 
ATOM     16  C12  11 d         -15.496 206.481 113.294  0.00  0.00     0.068 A 
ATOM     17  C14  11 d         -15.088 206.810 114.590  0.00  0.00     0.039 A 
ATOM     18  C15  11 d         -13.787 207.277 114.830  0.00  0.00     0.033 A 
ATOM     19  O4   11 d         -11.481 208.296 116.384  0.00  0.00    -0.270 OA
ATOM     20  H4   11 d          -8.322 207.172 115.729  0.00  0.00     0.281 HD
ENDROOT
BRANCH  16  21
ATOM     21  O3   11 d         -16.842 206.116 113.038  0.00  0.00    -0.356 OA
ATOM     22  C13  11 d         -17.137 206.272 111.627  0.00  0.00     0.210 C 
ENDBRANCH  16  21
TORSDOF 1
ENDMDL
MODEL 5
REMARK VINA RESULT:      -7.7      2.070      7.631
REMARK  1 active torsions:
REMARK  status: ('A' for Active; 'I' for Inactive)
REMARK    1  A    between atoms: C12_16  and  O3_17 
ROOT
ATOM      1  C1   11 d         -11.004 208.010 112.704  0.00  0.00     0.262 A 
ATOM      2  N1   11 d         -10.000 208.298 113.666  0.00  0.00    -0.251 N 
ATOM      3  C2   11 d         -10.722 208.436 114.876  0.00  0.00     0.233 A 
ATOM      4  O1   11 d         -10.206 208.699 116.012  0.00  0.00    -0.273 OA
ATOM      5  C3   11 d         -12.187 208.237 114.738  0.00  0.00     0.146 A 
ATOM      6  C4   11 d         -12.415 207.963 113.236  0.00  0.00     0.289 A 
ATOM      7  N2   11 d         -13.228 206.711 112.952  0.00  0.00    -0.054 N 
ATOM      8  C5   11 d         -13.285 206.347 111.486  0.00  0.00     0.262 C 
ATOM      9  C6   11 d         -14.250 205.191 111.200  0.00  0.00     0.195 C 
ATOM     10  O2   11 d         -15.560 205.503 111.732  0.00  0.00    -0.388 OA
ATOM     11  C7   11 d         -15.525 205.673 113.168  0.00  0.00     0.195 C 
ATOM     12  C8   11 d         -14.628 206.866 113.504  0.00  0.00     0.262 C 
ATOM     13  C9   11 d          -8.521 208.428 113.455  0.00  0.00     0.045 A 
ATOM     14  C10  11 d          -7.638 208.734 114.526  0.00  0.00     0.033 A 
ATOM     15  C11  11 d          -6.257 208.880 114.324  0.00  0.00     0.039 A 
ATOM     16  C12  11 d          -5.703 208.697 113.054  0.00  0.00     0.068 A 
ATOM     17  C14  11 d          -6.548 208.418 111.976  0.00  0.00     0.039 A 
ATOM     18  C15  11 d          -7.929 208.271 112.173  0.00  0.00     0.033 A 
ATOM     19  O4   11 d         -10.769 207.816 111.465  0.00  0.00    -0.270 OA
ATOM     20  H4   11 d         -12.760 205.885 113.459  0.00  0.00     0.281 HD
ENDROOT
BRANCH  16  21
ATOM     21  O3   11 d          -4.326 208.954 112.836  0.00  0.00    -0.356 OA
ATOM     22  C13  11 d          -3.808 208.048 111.829  0.00  0.00     0.210 C 
ENDBRANCH  16  21
TORSDOF 1
ENDMDL
MODEL 6
REMARK VINA RESULT:      -7.7      3.925      7.306
REMARK  1 active torsions:
REMARK  status: ('A' for Active; 'I' for Inactive)
REMARK    1  A    between atoms: C12_16  and  O3_17 
ROOT
ATOM      1  C1   11 d         -13.175 206.709 116.332  0.00  0.00     0.262 A 
ATOM      2  N1   11 d         -11.999 207.496 116.448  0.00  0.00    -0.251 N 
ATOM      3  C2   11 d         -11.910 207.767 117.835  0.00  0.00     0.233 A 
ATOM      4  O1   11 d         -10.989 208.452 118.391  0.00  0.00    -0.273 OA
ATOM      5  C3   11 d         -13.001 207.167 118.645  0.00  0.00     0.146 A 
ATOM      6  C4   11 d         -13.908 206.447 117.624  0.00  0.00     0.289 A 
ATOM      7  N2   11 d         -14.207 204.998 117.977  0.00  0.00    -0.054 N 
ATOM      8  C5   11 d         -14.933 204.249 116.883  0.00  0.00     0.262 C 
ATOM      9  C6   11 d         -15.382 202.850 117.323  0.00  0.00     0.195 C 
ATOM     10  O2   11 d         -16.172 202.946 118.532  0.00  0.00    -0.388 OA
ATOM     11  C7   11 d         -15.407 203.503 119.625  0.00  0.00     0.195 C 
ATOM     12  C8   11 d         -14.995 204.932 119.266  0.00  0.00     0.262 C 
ATOM     13  C9   11 d         -11.067 207.941 115.361  0.00  0.00     0.045 A 
ATOM     14  C10  11 d          -9.926 208.743 115.636  0.00  0.00     0.033 A 
ATOM     15  C11  11 d          -9.067 209.179 114.616  0.00  0.00     0.039 A 
ATOM     16  C12  11 d          -9.298 208.807 113.289  0.00  0.00     0.068 A 
ATOM     17  C14  11 d         -10.424 208.038 112.982  0.00  0.00     0.039 A 
ATOM     18  C15  11 d         -11.285 207.599 113.999  0.00  0.00     0.033 A 
ATOM     19  O4   11 d         -13.620 206.253 115.226  0.00  0.00    -0.270 OA
ATOM     20  H4   11 d         -13.271 204.491 118.132  0.00  0.00     0.281 HD
ENDROOT
BRANCH  16  21
ATOM     21  O3   11 d          -8.492 209.341 112.251  0.00  0.00    -0.356 OA
ATOM     22  C13  11 d          -7.237 208.618 112.179  0.00  0.00     0.210 C 
ENDBRANCH  16  21
TORSDOF 1
ENDMDL
MODEL 7
REMARK VINA RESULT:      -7.4      1.774      2.203
REMARK  1 active torsions:
REMARK  status: ('A' for Active; 'I' for Inactive)
REMARK    1  A    between atoms: C12_16  and  O3_17 
ROOT
ATOM      1  C1   11 d          -9.114 208.766 114.478  0.00  0.00     0.262 A 
ATOM      2  N1   11 d         -10.056 208.279 113.535  0.00  0.00    -0.251 N 
ATOM      3  C2   11 d          -9.483 208.610 112.283  0.00  0.00     0.233 A 
ATOM      4  O1   11 d         -10.003 208.352 111.147  0.00  0.00    -0.273 OA
ATOM      5  C3   11 d          -8.172 209.301 112.376  0.00  0.00     0.146 A 
ATOM      6  C4   11 d          -7.902 209.445 113.889  0.00  0.00     0.289 A 
ATOM      7  N2   11 d          -6.536 208.937 114.324  0.00  0.00    -0.054 N 
ATOM      8  C5   11 d          -6.353 208.905 115.824  0.00  0.00     0.262 C 
ATOM      9  C6   11 d          -4.918 208.562 116.238  0.00  0.00     0.195 C 
ATOM     10  O2   11 d          -3.992 209.473 115.599  0.00  0.00    -0.388 OA
ATOM     11  C7   11 d          -4.049 209.366 114.158  0.00  0.00     0.195 C 
ATOM     12  C8   11 d          -5.447 209.770 113.685  0.00  0.00     0.262 C 
ATOM     13  C9   11 d         -11.357 207.579 113.796  0.00  0.00     0.045 A 
ATOM     14  C10  11 d         -12.205 207.158 112.737  0.00  0.00     0.033 A 
ATOM     15  C11  11 d         -13.433 206.525 112.982  0.00  0.00     0.039 A 
ATOM     16  C12  11 d         -13.845 206.262 114.291  0.00  0.00     0.068 A 
ATOM     17  C14  11 d         -13.044 206.684 115.357  0.00  0.00     0.039 A 
ATOM     18  C15  11 d         -11.815 207.318 115.115  0.00  0.00     0.033 A 
ATOM     19  O4   11 d          -9.256 208.670 115.742  0.00  0.00    -0.270 OA
ATOM     20  H4   11 d          -6.429 207.925 113.976  0.00  0.00     0.281 HD
ENDROOT
BRANCH  16  21
ATOM     21  O3   11 d         -15.134 205.723 114.536  0.00  0.00    -0.356 OA
ATOM     22  C13  11 d         -15.128 204.973 115.776  0.00  0.00     0.210 C 
ENDBRANCH  16  21
TORSDOF 1
ENDMDL
MODEL 8
REMARK VINA RESULT:      -7.0      3.805      4.937
REMARK  1 active torsions:
REMARK  status: ('A' for Active; 'I' for Inactive)
REMARK    1  A    between atoms: C12_16  and  O3_17 
ROOT
ATOM      1  C1   11 d         -12.294 207.347 115.777  0.00  0.00     0.262 A 
ATOM      2  N1   11 d         -13.181 206.250 115.614  0.00  0.00    -0.251 N 
ATOM      3  C2   11 d         -13.306 206.124 114.209  0.00  0.00     0.233 A 
ATOM      4  O1   11 d         -14.019 205.250 113.612  0.00  0.00    -0.273 OA
ATOM      5  C3   11 d         -12.512 207.110 113.434  0.00  0.00     0.146 A 
ATOM      6  C4   11 d         -11.817 207.989 114.497  0.00  0.00     0.289 A 
ATOM      7  N2   11 d         -10.316 208.125 114.301  0.00  0.00    -0.054 N 
ATOM      8  C5   11 d          -9.618 208.824 115.445  0.00  0.00     0.262 C 
ATOM      9  C6   11 d          -8.141 209.111 115.152  0.00  0.00     0.195 C 
ATOM     10  O2   11 d          -8.022 209.849 113.912  0.00  0.00    -0.388 OA
ATOM     11  C7   11 d          -8.532 209.092 112.790  0.00  0.00     0.195 C 
ATOM     12  C8   11 d         -10.027 208.841 113.000  0.00  0.00     0.262 C 
ATOM     13  C9   11 d         -13.837 205.420 116.676  0.00  0.00     0.045 A 
ATOM     14  C10  11 d         -14.718 204.352 116.352  0.00  0.00     0.033 A 
ATOM     15  C11  11 d         -15.350 203.591 117.347  0.00  0.00     0.039 A 
ATOM     16  C12  11 d         -15.104 203.845 118.698  0.00  0.00     0.068 A 
ATOM     17  C14  11 d         -14.260 204.903 119.050  0.00  0.00     0.039 A 
ATOM     18  C15  11 d         -13.625 205.667 118.059  0.00  0.00     0.033 A 
ATOM     19  O4   11 d         -11.918 207.796 116.910  0.00  0.00    -0.270 OA
ATOM     20  H4   11 d          -9.895 207.137 114.238  0.00  0.00     0.281 HD
ENDROOT
BRANCH  16  21
ATOM     21  O3   11 d         -15.829 203.147 119.697  0.00  0.00    -0.356 OA
ATOM     22  C13  11 d         -16.960 203.942 120.133  0.00  0.00     0.210 C 
ENDBRANCH  16  21
TORSDOF 1
ENDMDL
MODEL 9
REMARK VINA RESULT:      -7.0     13.436     15.100
REMARK  1 active torsions:
REMARK  status: ('A' for Active; 'I' for Inactive)
REMARK    1  A    between atoms: C12_16  and  O3_17 
ROOT
ATOM      1  C1   11 d          -8.812 216.754 124.878  0.00  0.00     0.262 A 
ATOM      2  N1   11 d          -9.371 215.854 125.822  0.00  0.00    -0.251 N 
ATOM      3  C2   11 d          -8.411 215.816 126.861  0.00  0.00     0.233 A 
ATOM      4  O1   11 d          -8.510 215.123 127.928  0.00  0.00    -0.273 OA
ATOM      5  C3   11 d          -7.227 216.681 126.630  0.00  0.00     0.146 A 
ATOM      6  C4   11 d          -7.466 217.327 125.248  0.00  0.00     0.289 A 
ATOM      7  N2   11 d          -7.325 218.841 125.240  0.00  0.00    -0.054 N 
ATOM      8  C5   11 d          -7.745 219.480 123.936  0.00  0.00     0.262 C 
ATOM      9  C6   11 d          -7.430 220.979 123.883  0.00  0.00     0.195 C 
ATOM     10  O2   11 d          -6.026 221.195 124.165  0.00  0.00    -0.388 OA
ATOM     11  C7   11 d          -5.673 220.740 125.491  0.00  0.00     0.195 C 
ATOM     12  C8   11 d          -5.902 219.230 125.575  0.00  0.00     0.262 C 
ATOM     13  C9   11 d         -10.672 215.112 125.742  0.00  0.00     0.045 A 
ATOM     14  C10  11 d         -11.093 214.228 126.772  0.00  0.00     0.033 A 
ATOM     15  C11  11 d         -12.299 213.516 126.686  0.00  0.00     0.039 A 
ATOM     16  C12  11 d         -13.142 213.682 125.584  0.00  0.00     0.068 A 
ATOM     17  C14  11 d         -12.746 214.526 124.543  0.00  0.00     0.039 A 
ATOM     18  C15  11 d         -11.541 215.240 124.625  0.00  0.00     0.033 A 
ATOM     19  O4   11 d          -9.372 217.068 123.774  0.00  0.00    -0.270 OA
ATOM     20  H4   11 d          -7.968 219.242 126.004  0.00  0.00     0.281 HD
ENDROOT
BRANCH  16  21
ATOM     21  O3   11 d         -14.303 212.878 125.451  0.00  0.00    -0.356 OA
ATOM     22  C13  11 d         -13.966 211.485 125.669  0.00  0.00     0.210 C 
ENDBRANCH  16  21
TORSDOF 1
ENDMDL
MODEL 10
REMARK VINA RESULT:      -6.9      2.270      8.009
REMARK  1 active torsions:
REMARK  status: ('A' for Active; 'I' for Inactive)
REMARK    1  A    between atoms: C12_16  and  O3_17 
ROOT
ATOM      1  C1   11 d         -12.574 207.901 114.708  0.00  0.00     0.262 A 
ATOM      2  N1   11 d         -12.285 207.821 116.096  0.00  0.00    -0.251 N 
ATOM      3  C2   11 d         -13.545 207.569 116.689  0.00  0.00     0.233 A 
ATOM      4  O1   11 d         -13.751 207.421 117.939  0.00  0.00    -0.273 OA
ATOM      5  C3   11 d         -14.667 207.471 115.721  0.00  0.00     0.146 A 
ATOM      6  C4   11 d         -14.027 207.722 114.339  0.00  0.00     0.289 A 
ATOM      7  N2   11 d         -14.358 206.661 113.302  0.00  0.00    -0.054 N 
ATOM      8  C5   11 d         -13.579 206.810 112.015  0.00  0.00     0.262 C 
ATOM      9  C6   11 d         -14.052 205.845 110.922  0.00  0.00     0.195 C 
ATOM     10  O2   11 d         -15.477 206.001 110.714  0.00  0.00    -0.388 OA
ATOM     11  C7   11 d         -16.227 205.681 111.908  0.00  0.00     0.195 C 
ATOM     12  C8   11 d         -15.843 206.665 113.014  0.00  0.00     0.262 C 
ATOM     13  C9   11 d         -10.958 207.970 116.778  0.00  0.00     0.045 A 
ATOM     14  C10  11 d         -10.830 207.874 118.191  0.00  0.00     0.033 A 
ATOM     15  C11  11 d          -9.592 208.037 118.831  0.00  0.00     0.039 A 
ATOM     16  C12  11 d          -8.434 208.272 118.085  0.00  0.00     0.068 A 
ATOM     17  C14  11 d          -8.530 208.395 116.696  0.00  0.00     0.039 A 
ATOM     18  C15  11 d          -9.766 208.232 116.052  0.00  0.00     0.033 A 
ATOM     19  O4   11 d         -11.697 208.125 113.809  0.00  0.00    -0.270 OA
ATOM     20  H4   11 d         -14.101 205.700 113.711  0.00  0.00     0.281 HD
ENDROOT
BRANCH  16  21
ATOM     21  O3   11 d          -7.208 208.546 118.744  0.00  0.00    -0.356 OA
ATOM     22  C13  11 d          -7.439 208.720 120.164  0.00  0.00     0.210 C 
ENDBRANCH  16  21
TORSDOF 1
ENDMDL
MODEL 11
REMARK VINA RESULT:      -6.8      4.761      7.462
REMARK  1 active torsions:
REMARK  status: ('A' for Active; 'I' for Inactive)
REMARK    1  A    between atoms: C12_16  and  O3_17 
ROOT
ATOM      1  C1   11 d         -12.699 205.733 117.731  0.00  0.00     0.262 A 
ATOM      2  N1   11 d         -12.628 206.226 116.402  0.00  0.00    -0.251 N 
ATOM      3  C2   11 d         -13.697 205.573 115.742  0.00  0.00     0.233 A 
ATOM      4  O1   11 d         -14.004 205.727 114.514  0.00  0.00    -0.273 OA
ATOM      5  C3   11 d         -14.483 204.660 116.610  0.00  0.00     0.146 A 
ATOM      6  C4   11 d         -13.798 204.732 117.992  0.00  0.00     0.289 A 
ATOM      7  N2   11 d         -14.751 205.024 119.140  0.00  0.00    -0.054 N 
ATOM      8  C5   11 d         -14.052 205.281 120.455  0.00  0.00     0.262 C 
ATOM      9  C6   11 d         -15.027 205.397 121.632  0.00  0.00     0.195 C 
ATOM     10  O2   11 d         -15.870 204.221 121.687  0.00  0.00    -0.388 OA
ATOM     11  C7   11 d         -16.671 204.083 120.491  0.00  0.00     0.195 C 
ATOM     12  C8   11 d         -15.743 203.892 119.291  0.00  0.00     0.262 C 
ATOM     13  C9   11 d         -11.651 207.207 115.826  0.00  0.00     0.045 A 
ATOM     14  C10  11 d         -11.702 207.598 114.460  0.00  0.00     0.033 A 
ATOM     15  C11  11 d         -10.773 208.497 113.915  0.00  0.00     0.039 A 
ATOM     16  C12  11 d          -9.779 209.062 114.719  0.00  0.00     0.068 A 
ATOM     17  C14  11 d          -9.688 208.681 116.061  0.00  0.00     0.039 A 
ATOM     18  C15  11 d         -10.615 207.782 116.609  0.00  0.00     0.033 A 
ATOM     19  O4   11 d         -11.897 206.076 118.663  0.00  0.00    -0.270 OA
ATOM     20  H4   11 d         -15.301 205.918 118.901  0.00  0.00     0.281 HD
ENDROOT
BRANCH  16  21
ATOM     21  O3   11 d          -8.778 209.883 114.139  0.00  0.00    -0.356 OA
ATOM     22  C13  11 d          -8.649 209.581 112.727  0.00  0.00     0.210 C 
ENDBRANCH  16  21
TORSDOF 1
ENDMDL
MODEL 12
REMARK VINA RESULT:      -6.7      6.857      9.717
REMARK  1 active torsions:
REMARK  status: ('A' for Active; 'I' for Inactive)
REMARK    1  A    between atoms: C12_16  and  O3_17 
ROOT
ATOM      1  C1   11 d         -15.204 204.923 119.825  0.00  0.00     0.262 A 
ATOM      2  N1   11 d         -14.494 204.706 118.615  0.00  0.00    -0.251 N 
ATOM      3  C2   11 d         -15.038 203.498 118.116  0.00  0.00     0.233 A 
ATOM      4  O1   11 d         -14.685 202.927 117.031  0.00  0.00    -0.273 OA
ATOM      5  C3   11 d         -16.104 202.911 118.967  0.00  0.00     0.146 A 
ATOM      6  C4   11 d         -16.224 203.867 120.174  0.00  0.00     0.289 A 
ATOM      7  N2   11 d         -17.644 204.332 120.456  0.00  0.00    -0.054 N 
ATOM      8  C5   11 d         -17.727 205.410 121.512  0.00  0.00     0.262 C 
ATOM      9  C6   11 d         -19.171 205.739 121.909  0.00  0.00     0.195 C 
ATOM     10  O2   11 d         -19.856 204.529 122.313  0.00  0.00    -0.388 OA
ATOM     11  C7   11 d         -19.927 203.570 121.232  0.00  0.00     0.195 C 
ATOM     12  C8   11 d         -18.507 203.153 120.845  0.00  0.00     0.262 C 
ATOM     13  C9   11 d         -13.417 205.553 118.005  0.00  0.00     0.045 A 
ATOM     14  C10  11 d         -12.787 205.194 116.782  0.00  0.00     0.033 A 
ATOM     15  C11  11 d         -11.763 205.974 116.224  0.00  0.00     0.039 A 
ATOM     16  C12  11 d         -11.351 207.155 116.848  0.00  0.00     0.068 A 
ATOM     17  C14  11 d         -11.935 207.523 118.063  0.00  0.00     0.039 A 
ATOM     18  C15  11 d         -12.960 206.746 118.625  0.00  0.00     0.033 A 
ATOM     19  O4   11 d         -15.009 205.920 120.597  0.00  0.00    -0.270 OA
ATOM     20  H4   11 d         -18.044 204.753 119.550  0.00  0.00     0.281 HD
ENDROOT
BRANCH  16  21
ATOM     21  O3   11 d         -10.243 207.878 116.338  0.00  0.00    -0.356 OA
ATOM     22  C13  11 d         -10.705 208.932 115.456  0.00  0.00     0.210 C 
ENDBRANCH  16  21
TORSDOF 1
ENDMDL
MODEL 13
REMARK VINA RESULT:      -6.5      5.457      6.958
REMARK  1 active torsions:
REMARK  status: ('A' for Active; 'I' for Inactive)
REMARK    1  A    between atoms: C12_16  and  O3_17 
ROOT
ATOM      1  C1   11 d         -12.976 207.039 117.556  0.00  0.00     0.262 A 
ATOM      2  N1   11 d         -13.806 205.909 117.778  0.00  0.00    -0.251 N 
ATOM      3  C2   11 d         -14.197 205.516 116.475  0.00  0.00     0.233 A 
ATOM      4  O1   11 d         -14.956 204.528 116.203  0.00  0.00    -0.273 OA
ATOM      5  C3   11 d         -13.635 206.359 115.389  0.00  0.00     0.146 A 
ATOM      6  C4   11 d         -12.802 207.440 116.111  0.00  0.00     0.289 A 
ATOM      7  N2   11 d         -11.380 207.576 115.590  0.00  0.00    -0.054 N 
ATOM      8  C5   11 d         -10.517 208.496 116.423  0.00  0.00     0.262 C 
ATOM      9  C6   11 d          -9.148 208.760 115.786  0.00  0.00     0.195 C 
ATOM     10  O2   11 d          -9.322 209.254 114.436  0.00  0.00    -0.388 OA
ATOM     11  C7   11 d          -9.994 208.287 113.597  0.00  0.00     0.195 C 
ATOM     12  C8   11 d         -11.399 208.041 114.151  0.00  0.00     0.262 C 
ATOM     13  C9   11 d         -14.185 205.276 119.083  0.00  0.00     0.045 A 
ATOM     14  C10  11 d         -15.043 204.145 119.144  0.00  0.00     0.033 A 
ATOM     15  C11  11 d         -15.417 203.568 120.367  0.00  0.00     0.039 A 
ATOM     16  C12  11 d         -14.926 204.079 121.571  0.00  0.00     0.068 A 
ATOM     17  C14  11 d         -14.099 205.205 121.547  0.00  0.00     0.039 A 
ATOM     18  C15  11 d         -13.722 205.785 120.326  0.00  0.00     0.033 A 
ATOM     19  O4   11 d         -12.413 207.703 118.488  0.00  0.00    -0.270 OA
ATOM     20  H4   11 d         -10.918 206.605 115.620  0.00  0.00     0.281 HD
ENDROOT
BRANCH  16  21
ATOM     21  O3   11 d         -15.394 203.562 122.806  0.00  0.00    -0.356 OA
ATOM     22  C13  11 d         -14.297 202.958 123.536  0.00  0.00     0.210 C 
ENDBRANCH  16  21
TORSDOF 1
ENDMDL
MODEL 14
REMARK VINA RESULT:      -6.5      2.214      8.023
REMARK  1 active torsions:
REMARK  status: ('A' for Active; 'I' for Inactive)
REMARK    1  A    between atoms: C12_16  and  O3_17 
ROOT
ATOM      1  C1   11 d         -10.806 208.220 115.517  0.00  0.00     0.262 A 
ATOM      2  N1   11 d         -10.664 207.973 116.907  0.00  0.00    -0.251 N 
ATOM      3  C2   11 d         -11.988 207.720 117.342  0.00  0.00     0.233 A 
ATOM      4  O1   11 d         -12.327 207.446 118.541  0.00  0.00    -0.273 OA
ATOM      5  C3   11 d         -13.007 207.786 116.264  0.00  0.00     0.146 A 
ATOM      6  C4   11 d         -12.219 208.156 114.989  0.00  0.00     0.289 A 
ATOM      7  N2   11 d         -12.483 207.234 113.809  0.00  0.00    -0.054 N 
ATOM      8  C5   11 d         -11.570 207.485 112.631  0.00  0.00     0.262 C 
ATOM      9  C6   11 d         -11.966 206.672 111.393  0.00  0.00     0.195 C 
ATOM     10  O2   11 d         -13.354 206.921 111.066  0.00  0.00    -0.388 OA
ATOM     11  C7   11 d         -14.235 206.508 112.136  0.00  0.00     0.195 C 
ATOM     12  C8   11 d         -13.929 207.344 113.380  0.00  0.00     0.262 C 
ATOM     13  C9   11 d          -9.410 207.979 117.729  0.00  0.00     0.045 A 
ATOM     14  C10  11 d          -9.431 207.721 119.127  0.00  0.00     0.033 A 
ATOM     15  C11  11 d          -8.260 207.750 119.899  0.00  0.00     0.039 A 
ATOM     16  C12  11 d          -7.023 208.008 119.302  0.00  0.00     0.068 A 
ATOM     17  C14  11 d          -6.972 208.288 117.934  0.00  0.00     0.039 A 
ATOM     18  C15  11 d          -8.140 208.259 117.157  0.00  0.00     0.033 A 
ATOM     19  O4   11 d          -9.833 208.498 114.739  0.00  0.00    -0.270 OA
ATOM     20  H4   11 d         -12.306 206.222 114.129  0.00  0.00     0.281 HD
ENDROOT
BRANCH  16  21
ATOM     21  O3   11 d          -5.862 208.145 120.104  0.00  0.00    -0.356 OA
ATOM     22  C13  11 d          -5.454 209.536 120.149  0.00  0.00     0.210 C 
ENDBRANCH  16  21
TORSDOF 1
ENDMDL
MODEL 15
REMARK VINA RESULT:      -6.4      2.413      4.361
REMARK  1 active torsions:
REMARK  status: ('A' for Active; 'I' for Inactive)
REMARK    1  A    between atoms: C12_16  and  O3_17 
ROOT
ATOM      1  C1   11 d          -8.564 208.213 117.046  0.00  0.00     0.262 A 
ATOM      2  N1   11 d          -9.974 208.112 116.920  0.00  0.00    -0.251 N 
ATOM      3  C2   11 d         -10.436 208.159 118.257  0.00  0.00     0.233 A 
ATOM      4  O1   11 d         -11.660 208.101 118.614  0.00  0.00    -0.273 OA
ATOM      5  C3   11 d          -9.360 208.298 119.270  0.00  0.00     0.146 A 
ATOM      6  C4   11 d          -8.046 208.313 118.460  0.00  0.00     0.289 A 
ATOM      7  N2   11 d          -7.130 209.482 118.787  0.00  0.00    -0.054 N 
ATOM      8  C5   11 d          -5.942 209.596 117.860  0.00  0.00     0.262 C 
ATOM      9  C6   11 d          -4.940 210.665 118.311  0.00  0.00     0.195 C 
ATOM     10  O2   11 d          -4.539 210.415 119.680  0.00  0.00    -0.388 OA
ATOM     11  C7   11 d          -5.663 210.486 120.586  0.00  0.00     0.195 C 
ATOM     12  C8   11 d          -6.663 209.387 120.223  0.00  0.00     0.262 C 
ATOM     13  C9   11 d         -10.789 207.984 115.668  0.00  0.00     0.045 A 
ATOM     14  C10  11 d         -12.206 207.881 115.705  0.00  0.00     0.033 A 
ATOM     15  C11  11 d         -12.966 207.736 114.535  0.00  0.00     0.039 A 
ATOM     16  C12  11 d         -12.344 207.720 113.284  0.00  0.00     0.068 A 
ATOM     17  C14  11 d         -10.950 207.796 113.214  0.00  0.00     0.039 A 
ATOM     18  C15  11 d         -10.186 207.941 114.382  0.00  0.00     0.033 A 
ATOM     19  O4   11 d          -7.758 208.205 116.057  0.00  0.00    -0.270 OA
ATOM     20  H4   11 d          -7.696 210.391 118.680  0.00  0.00     0.281 HD
ENDROOT
BRANCH  16  21
ATOM     21  O3   11 d         -13.106 207.463 112.115  0.00  0.00    -0.356 OA
ATOM     22  C13  11 d         -13.891 206.257 112.293  0.00  0.00     0.210 C 
ENDBRANCH  16  21
TORSDOF 1
ENDMDL
MODEL 16
REMARK VINA RESULT:      -6.3      2.993      3.970
REMARK  1 active torsions:
REMARK  status: ('A' for Active; 'I' for Inactive)
REMARK    1  A    between atoms: C12_16  and  O3_17 
ROOT
ATOM      1  C1   11 d         -10.718 207.658 118.072  0.00  0.00     0.262 A 
ATOM      2  N1   11 d         -10.932 207.901 116.690  0.00  0.00    -0.251 N 
ATOM      3  C2   11 d          -9.667 208.335 116.224  0.00  0.00     0.233 A 
ATOM      4  O1   11 d          -9.402 208.664 115.021  0.00  0.00    -0.273 OA
ATOM      5  C3   11 d          -8.614 208.376 117.269  0.00  0.00     0.146 A 
ATOM      6  C4   11 d          -9.320 207.934 118.569  0.00  0.00     0.289 A 
ATOM      7  N2   11 d          -8.608 206.814 119.310  0.00  0.00    -0.054 N 
ATOM      8  C5   11 d          -9.400 206.260 120.472  0.00  0.00     0.262 C 
ATOM      9  C6   11 d          -8.597 205.260 121.312  0.00  0.00     0.195 C 
ATOM     10  O2   11 d          -7.355 205.868 121.743  0.00  0.00    -0.388 OA
ATOM     11  C7   11 d          -6.523 206.233 120.619  0.00  0.00     0.195 C 
ATOM     12  C8   11 d          -7.251 207.288 119.784  0.00  0.00     0.262 C 
ATOM     13  C9   11 d         -12.198 207.741 115.903  0.00  0.00     0.045 A 
ATOM     14  C10  11 d         -12.258 208.039 114.515  0.00  0.00     0.033 A 
ATOM     15  C11  11 d         -13.450 207.912 113.784  0.00  0.00     0.039 A 
ATOM     16  C12  11 d         -14.616 207.455 114.404  0.00  0.00     0.068 A 
ATOM     17  C14  11 d         -14.596 207.176 115.773  0.00  0.00     0.039 A 
ATOM     18  C15  11 d         -13.407 207.301 116.508  0.00  0.00     0.033 A 
ATOM     19  O4   11 d         -11.624 207.250 118.873  0.00  0.00    -0.270 OA
ATOM     20  H4   11 d          -8.455 206.001 118.622  0.00  0.00     0.281 HD
ENDROOT
BRANCH  16  21
ATOM     21  O3   11 d         -15.839 207.435 113.688  0.00  0.00    -0.356 OA
ATOM     22  C13  11 d         -16.032 206.134 113.077  0.00  0.00     0.210 C 
ENDBRANCH  16  21
TORSDOF 1
ENDMDL
MODEL 17
REMARK VINA RESULT:      -6.2      8.625     10.295
REMARK  1 active torsions:
REMARK  status: ('A' for Active; 'I' for Inactive)
REMARK    1  A    between atoms: C12_16  and  O3_17 
ROOT
ATOM      1  C1   11 d         -15.806 204.387 120.050  0.00  0.00     0.262 A 
ATOM      2  N1   11 d         -16.623 204.794 121.138  0.00  0.00    -0.251 N 
ATOM      3  C2   11 d         -15.896 205.857 121.726  0.00  0.00     0.233 A 
ATOM      4  O1   11 d         -16.269 206.525 122.746  0.00  0.00    -0.273 OA
ATOM      5  C3   11 d         -14.615 206.171 121.044  0.00  0.00     0.146 A 
ATOM      6  C4   11 d         -14.514 205.150 119.890  0.00  0.00     0.289 A 
ATOM      7  N2   11 d         -14.235 205.776 118.533  0.00  0.00    -0.054 N 
ATOM      8  C5   11 d         -14.327 204.796 117.386  0.00  0.00     0.262 C 
ATOM      9  C6   11 d         -13.871 205.400 116.053  0.00  0.00     0.195 C 
ATOM     10  O2   11 d         -12.538 205.947 116.193  0.00  0.00    -0.388 OA
ATOM     11  C7   11 d         -12.499 207.012 117.171  0.00  0.00     0.195 C 
ATOM     12  C8   11 d         -12.878 206.443 118.540  0.00  0.00     0.262 C 
ATOM     13  C9   11 d         -17.944 204.231 121.569  0.00  0.00     0.045 A 
ATOM     14  C10  11 d         -18.641 204.743 122.697  0.00  0.00     0.033 A 
ATOM     15  C11  11 d         -19.866 204.200 123.115  0.00  0.00     0.039 A 
ATOM     16  C12  11 d         -20.454 203.149 122.407  0.00  0.00     0.068 A 
ATOM     17  C14  11 d         -19.783 202.608 121.306  0.00  0.00     0.039 A 
ATOM     18  C15  11 d         -18.558 203.148 120.885  0.00  0.00     0.033 A 
ATOM     19  O4   11 d         -16.103 203.436 119.253  0.00  0.00    -0.270 OA
ATOM     20  H4   11 d         -14.978 206.534 118.354  0.00  0.00     0.281 HD
ENDROOT
BRANCH  16  21
ATOM     21  O3   11 d         -21.634 202.534 122.897  0.00  0.00    -0.356 OA
ATOM     22  C13  11 d         -21.535 202.351 124.332  0.00  0.00     0.210 C 
ENDBRANCH  16  21
TORSDOF 1
ENDMDL
MODEL 18
REMARK VINA RESULT:      -6.0     13.011     13.948
REMARK  1 active torsions:
REMARK  status: ('A' for Active; 'I' for Inactive)
REMARK    1  A    between atoms: C12_16  and  O3_17 
ROOT
ATOM      1  C1   11 d         -11.108 214.516 126.290  0.00  0.00     0.262 A 
ATOM      2  N1   11 d         -12.087 213.692 125.675  0.00  0.00    -0.251 N 
ATOM      3  C2   11 d         -12.288 214.295 124.410  0.00  0.00     0.233 A 
ATOM      4  O1   11 d         -13.095 213.874 123.516  0.00  0.00    -0.273 OA
ATOM      5  C3   11 d         -11.455 215.501 124.169  0.00  0.00     0.146 A 
ATOM      6  C4   11 d         -10.643 215.693 125.468  0.00  0.00     0.289 A 
ATOM      7  N2   11 d          -9.147 215.842 125.245  0.00  0.00    -0.054 N 
ATOM      8  C5   11 d          -8.343 215.838 126.525  0.00  0.00     0.262 C 
ATOM      9  C6   11 d          -6.863 216.166 126.295  0.00  0.00     0.195 C 
ATOM     10  O2   11 d          -6.744 217.422 125.584  0.00  0.00    -0.388 OA
ATOM     11  C7   11 d          -7.366 217.356 124.280  0.00  0.00     0.195 C 
ATOM     12  C8   11 d          -8.864 217.101 124.456  0.00  0.00     0.262 C 
ATOM     13  C9   11 d         -12.755 212.470 126.230  0.00  0.00     0.045 A 
ATOM     14  C10  11 d         -13.733 211.752 125.490  0.00  0.00     0.033 A 
ATOM     15  C11  11 d         -14.376 210.622 126.019  0.00  0.00     0.039 A 
ATOM     16  C12  11 d         -14.046 210.151 127.292  0.00  0.00     0.068 A 
ATOM     17  C14  11 d         -13.105 210.848 128.055  0.00  0.00     0.039 A 
ATOM     18  C15  11 d         -12.459 211.978 127.529  0.00  0.00     0.033 A 
ATOM     19  O4   11 d         -10.644 214.317 127.462  0.00  0.00    -0.270 OA
ATOM     20  H4   11 d          -8.809 215.002 124.664  0.00  0.00     0.281 HD
ENDROOT
BRANCH  16  21
ATOM     21  O3   11 d         -14.776 209.078 127.864  0.00  0.00    -0.356 OA
ATOM     22  C13  11 d         -16.137 209.086 127.365  0.00  0.00     0.210 C 
ENDBRANCH  16  21
TORSDOF 1
ENDMDL
MODEL 19
REMARK VINA RESULT:      -6.0      6.662      8.616
REMARK  1 active torsions:
REMARK  status: ('A' for Active; 'I' for Inactive)
REMARK    1  A    between atoms: C12_16  and  O3_17 
ROOT
ATOM      1  C1   11 d         -13.934 206.210 118.483  0.00  0.00     0.262 A 
ATOM      2  N1   11 d         -14.420 205.084 119.199  0.00  0.00    -0.251 N 
ATOM      3  C2   11 d         -14.694 204.133 118.186  0.00  0.00     0.233 A 
ATOM      4  O1   11 d         -15.153 202.960 118.387  0.00  0.00    -0.273 OA
ATOM      5  C3   11 d         -14.391 204.602 116.810  0.00  0.00     0.146 A 
ATOM      6  C4   11 d         -13.884 206.050 116.983  0.00  0.00     0.289 A 
ATOM      7  N2   11 d         -12.557 206.327 116.294  0.00  0.00    -0.054 N 
ATOM      8  C5   11 d         -11.977 207.683 116.624  0.00  0.00     0.262 C 
ATOM      9  C6   11 d         -10.737 208.016 115.787  0.00  0.00     0.195 C 
ATOM     10  O2   11 d         -11.047 207.887 114.379  0.00  0.00    -0.388 OA
ATOM     11  C7   11 d         -11.431 206.535 114.039  0.00  0.00     0.195 C 
ATOM     12  C8   11 d         -12.711 206.177 114.796  0.00  0.00     0.262 C 
ATOM     13  C9   11 d         -14.604 204.933 120.679  0.00  0.00     0.045 A 
ATOM     14  C10  11 d         -15.117 203.737 121.250  0.00  0.00     0.033 A 
ATOM     15  C11  11 d         -15.312 203.605 122.633  0.00  0.00     0.039 A 
ATOM     16  C12  11 d         -14.974 204.648 123.499  0.00  0.00     0.068 A 
ATOM     17  C14  11 d         -14.489 205.847 122.967  0.00  0.00     0.039 A 
ATOM     18  C15  11 d         -14.292 205.983 121.585  0.00  0.00     0.033 A 
ATOM     19  O4   11 d         -13.571 207.302 119.033  0.00  0.00    -0.270 OA
ATOM     20  H4   11 d         -11.846 205.594 116.630  0.00  0.00     0.281 HD
ENDROOT
BRANCH  16  21
ATOM     21  O3   11 d         -15.276 204.550 124.881  0.00  0.00    -0.356 OA
ATOM     22  C13  11 d         -14.724 205.688 125.589  0.00  0.00     0.210 C 
ENDBRANCH  16  21
TORSDOF 1
ENDMDL
MODEL 20
REMARK VINA RESULT:      -5.9      3.170      4.881
REMARK  1 active torsions:
REMARK  status: ('A' for Active; 'I' for Inactive)
REMARK    1  A    between atoms: C12_16  and  O3_17 
ROOT
ATOM      1  C1   11 d          -9.613 207.390 117.758  0.00  0.00     0.262 A 
ATOM      2  N1   11 d         -10.846 206.843 117.315  0.00  0.00    -0.251 N 
ATOM      3  C2   11 d         -11.316 206.118 118.437  0.00  0.00     0.233 A 
ATOM      4  O1   11 d         -12.408 205.461 118.481  0.00  0.00    -0.273 OA
ATOM      5  C3   11 d         -10.422 206.181 119.622  0.00  0.00     0.146 A 
ATOM      6  C4   11 d          -9.219 207.038 119.171  0.00  0.00     0.289 A 
ATOM      7  N2   11 d          -8.891 208.186 120.113  0.00  0.00    -0.054 N 
ATOM      8  C5   11 d          -7.841 209.128 119.572  0.00  0.00     0.262 C 
ATOM      9  C6   11 d          -7.395 210.172 120.602  0.00  0.00     0.195 C 
ATOM     10  O2   11 d          -6.958 209.510 121.813  0.00  0.00    -0.388 OA
ATOM     11  C7   11 d          -8.028 208.751 122.422  0.00  0.00     0.195 C 
ATOM     12  C8   11 d          -8.462 207.645 121.459  0.00  0.00     0.262 C 
ATOM     13  C9   11 d         -11.501 206.992 115.975  0.00  0.00     0.045 A 
ATOM     14  C10  11 d         -12.743 206.367 115.676  0.00  0.00     0.033 A 
ATOM     15  C11  11 d         -13.343 206.487 114.413  0.00  0.00     0.039 A 
ATOM     16  C12  11 d         -12.744 207.257 113.414  0.00  0.00     0.068 A 
ATOM     17  C14  11 d         -11.511 207.866 113.668  0.00  0.00     0.039 A 
ATOM     18  C15  11 d         -10.907 207.749 114.929  0.00  0.00     0.033 A 
ATOM     19  O4   11 d          -8.857 208.120 117.034  0.00  0.00    -0.270 OA
ATOM     20  H4   11 d          -9.785 208.767 120.257  0.00  0.00     0.281 HD
ENDROOT
BRANCH  16  21
ATOM     21  O3   11 d         -13.298 207.284 112.109  0.00  0.00    -0.356 OA
ATOM     22  C13  11 d         -12.338 206.765 111.154  0.00  0.00     0.210 C 
ENDBRANCH  16  21
TORSDOF 1
ENDMDL
