MODEL 1
REMARK VINA RESULT:      -7.7      0.000      0.000
REMARK  3 active torsions:
REMARK  status: ('A' for Active; 'I' for Inactive)
REMARK    1  A    between atoms: C4_6  and  S1_7 
REMARK    2  A    between atoms: S1_7  and  C5_8 
REMARK    3  A    between atoms: C5_8  and  C6_9 
ROOT
ATOM      1  C1   11 d         -12.283 207.435 112.242  0.00  0.00     0.245 A 
ATOM      2  N1   11 d         -11.558 207.983 113.336  0.00  0.00    -0.251 N 
ATOM      3  C2   11 d         -12.533 208.100 114.362  0.00  0.00     0.232 A 
ATOM      4  O1   11 d         -12.307 208.557 115.535  0.00  0.00    -0.273 OA
ATOM      5  C3   11 d         -13.896 207.643 113.972  0.00  0.00     0.128 A 
ATOM      6  C4   11 d         -13.733 207.181 112.522  0.00  0.00     0.149 A 
ATOM      7  C7   11 d         -10.106 208.350 113.395  0.00  0.00     0.045 A 
ATOM      8  C8   11 d          -9.521 208.898 114.568  0.00  0.00     0.032 A 
ATOM      9  C9   11 d          -8.162 209.244 114.623  0.00  0.00     0.026 A 
ATOM     10  C10  11 d          -7.341 209.052 113.508  0.00  0.00     0.034 A 
ATOM     11 Cl1   11 d          -5.617 209.491 113.579  0.00  0.00    -0.084 Cl
ATOM     12  C11  11 d          -7.883 208.514 112.338  0.00  0.00     0.026 A 
ATOM     13  C12  11 d          -9.243 208.169 112.282  0.00  0.00     0.032 A 
ATOM     14  O4   11 d         -11.775 207.180 111.096  0.00  0.00    -0.271 OA
ENDROOT
BRANCH   6  15
ATOM     15  S1   11 d         -14.180 205.399 112.352  0.00  0.00    -0.144 SA
BRANCH  15  16
ATOM     16  C5   11 d         -15.705 205.645 111.342  0.00  0.00     0.187 C 
BRANCH  16  17
ATOM     17  C6   11 d         -16.892 206.027 112.171  0.00  0.00     0.182 C 
ATOM     18  O2   11 d         -17.884 206.696 111.640  0.00  0.00    -0.647 OA
ATOM     19  O3   11 d         -16.888 205.792 113.458  0.00  0.00    -0.647 OA
ENDBRANCH  16  17
ENDBRANCH  15  16
ENDBRANCH   6  15
TORSDOF 3
ENDMDL
MODEL 2
REMARK VINA RESULT:      -7.7      1.427      2.497
REMARK  3 active torsions:
REMARK  status: ('A' for Active; 'I' for Inactive)
REMARK    1  A    between atoms: C4_6  and  S1_7 
REMARK    2  A    between atoms: S1_7  and  C5_8 
REMARK    3  A    between atoms: C5_8  and  C6_9 
ROOT
ATOM      1  C1   11 d         -12.362 207.119 112.412  0.00  0.00     0.245 A 
ATOM      2  N1   11 d         -11.162 207.711 111.928  0.00  0.00    -0.251 N 
ATOM      3  C2   11 d         -11.261 207.569 110.519  0.00  0.00     0.232 A 
ATOM      4  O1   11 d         -10.382 207.971 109.681  0.00  0.00    -0.273 OA
ATOM      5  C3   11 d         -12.503 206.891 110.053  0.00  0.00     0.128 A 
ATOM      6  C4   11 d         -13.265 206.583 111.343  0.00  0.00     0.149 A 
ATOM      7  C7   11 d         -10.054 208.338 112.719  0.00  0.00     0.045 A 
ATOM      8  C8   11 d          -8.906 208.887 112.089  0.00  0.00     0.032 A 
ATOM      9  C9   11 d          -7.867 209.473 112.829  0.00  0.00     0.026 A 
ATOM     10  C10  11 d          -7.941 209.530 114.224  0.00  0.00     0.034 A 
ATOM     11 Cl1   11 d          -6.623 210.273 115.161  0.00  0.00    -0.084 Cl
ATOM     12  C11  11 d          -9.058 209.001 114.876  0.00  0.00     0.026 A 
ATOM     13  C12  11 d         -10.097 208.414 114.137  0.00  0.00     0.032 A 
ATOM     14  O4   11 d         -12.670 207.022 113.650  0.00  0.00    -0.271 OA
ENDROOT
BRANCH   6  15
ATOM     15  S1   11 d         -14.915 207.410 111.338  0.00  0.00    -0.144 SA
BRANCH  15  16
ATOM     16  C5   11 d         -15.937 205.874 111.388  0.00  0.00     0.187 C 
BRANCH  16  17
ATOM     17  C6   11 d         -17.193 206.041 112.187  0.00  0.00     0.182 C 
ATOM     18  O2   11 d         -18.229 206.653 111.671  0.00  0.00    -0.647 OA
ATOM     19  O3   11 d         -17.217 205.676 113.443  0.00  0.00    -0.647 OA
ENDBRANCH  16  17
ENDBRANCH  15  16
ENDBRANCH   6  15
TORSDOF 3
ENDMDL
MODEL 3
REMARK VINA RESULT:      -7.3      2.398      3.233
REMARK  3 active torsions:
REMARK  status: ('A' for Active; 'I' for Inactive)
REMARK    1  A    between atoms: C4_6  and  S1_7 
REMARK    2  A    between atoms: S1_7  and  C5_8 
REMARK    3  A    between atoms: C5_8  and  C6_9 
ROOT
ATOM      1  C1   11 d         -12.933 206.434 112.869  0.00  0.00     0.245 A 
ATOM      2  N1   11 d         -11.794 207.209 113.223  0.00  0.00    -0.251 N 
ATOM      3  C2   11 d         -11.225 207.563 111.972  0.00  0.00     0.232 A 
ATOM      4  O1   11 d         -10.169 208.270 111.824  0.00  0.00    -0.273 OA
ATOM      5  C3   11 d         -11.959 207.035 110.788  0.00  0.00     0.128 A 
ATOM      6  C4   11 d         -13.134 206.264 111.393  0.00  0.00     0.149 A 
ATOM      7  C7   11 d         -11.310 207.571 114.595  0.00  0.00     0.045 A 
ATOM      8  C8   11 d         -10.143 208.356 114.792  0.00  0.00     0.032 A 
ATOM      9  C9   11 d          -9.688 208.693 116.075  0.00  0.00     0.026 A 
ATOM     10  C10  11 d         -10.385 208.258 117.207  0.00  0.00     0.034 A 
ATOM     11 Cl1   11 d          -9.807 208.687 118.835  0.00  0.00    -0.084 Cl
ATOM     12  C11  11 d         -11.539 207.486 117.049  0.00  0.00     0.026 A 
ATOM     13  C12  11 d         -11.994 207.147 115.766  0.00  0.00     0.032 A 
ATOM     14  O4   11 d         -13.732 205.898 113.712  0.00  0.00    -0.271 OA
ENDROOT
BRANCH   6  15
ATOM     15  S1   11 d         -14.741 206.966 110.818  0.00  0.00    -0.144 SA
BRANCH  15  16
ATOM     16  C5   11 d         -15.806 205.557 111.353  0.00  0.00     0.187 C 
BRANCH  16  17
ATOM     17  C6   11 d         -16.983 205.998 112.166  0.00  0.00     0.182 C 
ATOM     18  O2   11 d         -17.944 206.696 111.616  0.00  0.00    -0.647 OA
ATOM     19  O3   11 d         -16.997 205.785 113.457  0.00  0.00    -0.647 OA
ENDBRANCH  16  17
ENDBRANCH  15  16
ENDBRANCH   6  15
TORSDOF 3
ENDMDL
MODEL 4
REMARK VINA RESULT:      -7.3      4.222      7.730
REMARK  3 active torsions:
REMARK  status: ('A' for Active; 'I' for Inactive)
REMARK    1  A    between atoms: C4_6  and  S1_7 
REMARK    2  A    between atoms: S1_7  and  C5_8 
REMARK    3  A    between atoms: C5_8  and  C6_9 
ROOT
ATOM      1  C1   11 d         -10.149 208.691 114.442  0.00  0.00     0.245 A 
ATOM      2  N1   11 d         -10.534 208.188 113.169  0.00  0.00    -0.251 N 
ATOM      3  C2   11 d          -9.523 208.671 112.296  0.00  0.00     0.232 A 
ATOM      4  O1   11 d          -9.480 208.450 111.036  0.00  0.00    -0.273 OA
ATOM      5  C3   11 d          -8.473 209.490 112.962  0.00  0.00     0.128 A 
ATOM      6  C4   11 d          -8.891 209.506 114.434  0.00  0.00     0.149 A 
ATOM      7  C7   11 d         -11.724 207.344 112.827  0.00  0.00     0.045 A 
ATOM      8  C8   11 d         -11.982 206.919 111.497  0.00  0.00     0.032 A 
ATOM      9  C9   11 d         -13.097 206.130 111.176  0.00  0.00     0.026 A 
ATOM     10  C10  11 d         -13.993 205.738 112.175  0.00  0.00     0.034 A 
ATOM     11 Cl1   11 d         -15.408 204.738 111.767  0.00  0.00    -0.084 Cl
ATOM     12  C11  11 d         -13.770 206.138 113.495  0.00  0.00     0.026 A 
ATOM     13  C12  11 d         -12.654 206.927 113.817  0.00  0.00     0.032 A 
ATOM     14  O4   11 d         -10.805 208.496 115.523  0.00  0.00    -0.271 OA
ENDROOT
BRANCH   6  15
ATOM     15  S1   11 d          -7.571 208.771 115.493  0.00  0.00    -0.144 SA
BRANCH  15  16
ATOM     16  C5   11 d          -6.180 208.982 114.298  0.00  0.00     0.187 C 
BRANCH  16  17
ATOM     17  C6   11 d          -5.416 210.251 114.519  0.00  0.00     0.182 C 
ATOM     18  O2   11 d          -5.947 211.234 115.201  0.00  0.00    -0.647 OA
ATOM     19  O3   11 d          -4.259 210.423 113.933  0.00  0.00    -0.647 OA
ENDBRANCH  16  17
ENDBRANCH  15  16
ENDBRANCH   6  15
TORSDOF 3
ENDMDL
MODEL 5
REMARK VINA RESULT:      -7.2      3.986      7.230
REMARK  3 active torsions:
REMARK  status: ('A' for Active; 'I' for Inactive)
REMARK    1  A    between atoms: C4_6  and  S1_7 
REMARK    2  A    between atoms: S1_7  and  C5_8 
REMARK    3  A    between atoms: C5_8  and  C6_9 
ROOT
ATOM      1  C1   11 d         -10.873 207.710 112.379  0.00  0.00     0.245 A 
ATOM      2  N1   11 d         -12.028 207.650 113.206  0.00  0.00    -0.251 N 
ATOM      3  C2   11 d         -11.533 207.968 114.499  0.00  0.00     0.232 A 
ATOM      4  O1   11 d         -12.247 208.027 115.559  0.00  0.00    -0.273 OA
ATOM      5  C3   11 d         -10.069 208.235 114.550  0.00  0.00     0.128 A 
ATOM      6  C4   11 d          -9.609 208.065 113.101  0.00  0.00     0.149 A 
ATOM      7  C7   11 d         -13.437 207.330 112.809  0.00  0.00     0.045 A 
ATOM      8  C8   11 d         -14.493 207.304 113.758  0.00  0.00     0.032 A 
ATOM      9  C9   11 d         -15.813 207.002 113.387  0.00  0.00     0.026 A 
ATOM     10  C10  11 d         -16.122 206.717 112.053  0.00  0.00     0.034 A 
ATOM     11 Cl1   11 d         -17.795 206.334 111.584  0.00  0.00    -0.084 Cl
ATOM     12  C11  11 d         -15.107 206.735 111.093  0.00  0.00     0.026 A 
ATOM     13  C12  11 d         -13.787 207.036 111.464  0.00  0.00     0.032 A 
ATOM     14  O4   11 d         -10.874 207.473 111.122  0.00  0.00    -0.271 OA
ENDROOT
BRANCH   6  15
ATOM     15  S1   11 d          -8.854 209.626 112.470  0.00  0.00    -0.144 SA
BRANCH  15  16
ATOM     16  C5   11 d          -7.102 209.207 112.871  0.00  0.00     0.187 C 
BRANCH  16  17
ATOM     17  C6   11 d          -6.770 209.429 114.314  0.00  0.00     0.182 C 
ATOM     18  O2   11 d          -6.845 210.629 114.834  0.00  0.00    -0.647 OA
ATOM     19  O3   11 d          -6.293 208.444 115.031  0.00  0.00    -0.647 OA
ENDBRANCH  16  17
ENDBRANCH  15  16
ENDBRANCH   6  15
TORSDOF 3
ENDMDL
MODEL 6
REMARK VINA RESULT:      -7.2      4.426      5.544
REMARK  3 active torsions:
REMARK  status: ('A' for Active; 'I' for Inactive)
REMARK    1  A    between atoms: C4_6  and  S1_7 
REMARK    2  A    between atoms: S1_7  and  C5_8 
REMARK    3  A    between atoms: C5_8  and  C6_9 
ROOT
ATOM      1  C1   11 d         -14.290 205.548 115.735  0.00  0.00     0.245 A 
ATOM      2  N1   11 d         -13.021 206.047 115.331  0.00  0.00    -0.251 N 
ATOM      3  C2   11 d         -12.280 206.101 116.541  0.00  0.00     0.232 A 
ATOM      4  O1   11 d         -11.068 206.500 116.638  0.00  0.00    -0.273 OA
ATOM      5  C3   11 d         -13.032 205.652 117.746  0.00  0.00     0.128 A 
ATOM      6  C4   11 d         -14.410 205.267 117.202  0.00  0.00     0.149 A 
ATOM      7  C7   11 d         -12.569 206.424 113.953  0.00  0.00     0.045 A 
ATOM      8  C8   11 d         -11.260 206.916 113.705  0.00  0.00     0.032 A 
ATOM      9  C9   11 d         -10.837 207.271 112.415  0.00  0.00     0.026 A 
ATOM     10  C10  11 d         -11.708 207.145 111.328  0.00  0.00     0.034 A 
ATOM     11 Cl1   11 d         -11.170 207.596 109.692  0.00  0.00    -0.084 Cl
ATOM     12  C11  11 d         -13.002 206.662 111.536  0.00  0.00     0.026 A 
ATOM     13  C12  11 d         -13.427 206.308 112.826  0.00  0.00     0.032 A 
ATOM     14  O4   11 d         -15.275 205.357 114.941  0.00  0.00    -0.271 OA
ENDROOT
BRANCH   6  15
ATOM     15  S1   11 d         -14.774 203.492 117.549  0.00  0.00    -0.144 SA
BRANCH  15  16
ATOM     16  C5   11 d         -15.335 203.715 119.294  0.00  0.00     0.187 C 
BRANCH  16  17
ATOM     17  C6   11 d         -16.602 202.975 119.592  0.00  0.00     0.182 C 
ATOM     18  O2   11 d         -16.618 202.024 120.491  0.00  0.00    -0.647 OA
ATOM     19  O3   11 d         -17.671 203.201 118.873  0.00  0.00    -0.647 OA
ENDBRANCH  16  17
ENDBRANCH  15  16
ENDBRANCH   6  15
TORSDOF 3
ENDMDL
MODEL 7
REMARK VINA RESULT:      -6.9      4.364      5.984
REMARK  3 active torsions:
REMARK  status: ('A' for Active; 'I' for Inactive)
REMARK    1  A    between atoms: C4_6  and  S1_7 
REMARK    2  A    between atoms: S1_7  and  C5_8 
REMARK    3  A    between atoms: C5_8  and  C6_9 
ROOT
ATOM      1  C1   11 d         -12.238 206.008 116.435  0.00  0.00     0.245 A 
ATOM      2  N1   11 d         -12.979 205.923 115.224  0.00  0.00    -0.251 N 
ATOM      3  C2   11 d         -14.211 205.340 115.622  0.00  0.00     0.232 A 
ATOM      4  O1   11 d         -15.184 205.080 114.834  0.00  0.00    -0.273 OA
ATOM      5  C3   11 d         -14.305 205.030 117.076  0.00  0.00     0.128 A 
ATOM      6  C4   11 d         -12.959 205.488 117.642  0.00  0.00     0.149 A 
ATOM      7  C7   11 d         -12.560 206.352 113.850  0.00  0.00     0.045 A 
ATOM      8  C8   11 d         -13.416 206.198 112.727  0.00  0.00     0.032 A 
ATOM      9  C9   11 d         -13.024 206.597 111.440  0.00  0.00     0.026 A 
ATOM     10  C10  11 d         -11.763 207.164 111.232  0.00  0.00     0.034 A 
ATOM     11 Cl1   11 d         -11.266 207.670 109.599  0.00  0.00    -0.084 Cl
ATOM     12  C11  11 d         -10.896 207.332 112.315  0.00  0.00     0.026 A 
ATOM     13  C12  11 d         -11.288 206.932 113.603  0.00  0.00     0.032 A 
ATOM     14  O4   11 d         -11.048 206.469 116.522  0.00  0.00    -0.271 OA
ENDROOT
BRANCH   6  15
ATOM     15  S1   11 d         -13.202 206.788 118.929  0.00  0.00    -0.144 SA
BRANCH  15  16
ATOM     16  C5   11 d         -14.762 206.107 119.644  0.00  0.00     0.187 C 
BRANCH  16  17
ATOM     17  C6   11 d         -15.258 206.902 120.812  0.00  0.00     0.182 C 
ATOM     18  O2   11 d         -14.473 207.140 121.833  0.00  0.00    -0.647 OA
ATOM     19  O3   11 d         -16.514 207.263 120.866  0.00  0.00    -0.647 OA
ENDBRANCH  16  17
ENDBRANCH  15  16
ENDBRANCH   6  15
TORSDOF 3
ENDMDL
MODEL 8
REMARK VINA RESULT:      -6.9      4.521      8.065
REMARK  3 active torsions:
REMARK  status: ('A' for Active; 'I' for Inactive)
REMARK    1  A    between atoms: C4_6  and  S1_7 
REMARK    2  A    between atoms: S1_7  and  C5_8 
REMARK    3  A    between atoms: C5_8  and  C6_9 
ROOT
ATOM      1  C1   11 d          -9.202 209.068 114.641  0.00  0.00     0.245 A 
ATOM      2  N1   11 d          -9.485 208.541 113.350  0.00  0.00    -0.251 N 
ATOM      3  C2   11 d          -8.276 208.738 112.633  0.00  0.00     0.232 A 
ATOM      4  O1   11 d          -8.088 208.405 111.412  0.00  0.00    -0.273 OA
ATOM      5  C3   11 d          -7.192 209.391 113.419  0.00  0.00     0.128 A 
ATOM      6  C4   11 d          -7.816 209.616 114.798  0.00  0.00     0.149 A 
ATOM      7  C7   11 d         -10.759 207.920 112.862  0.00  0.00     0.045 A 
ATOM      8  C8   11 d         -10.893 207.440 111.532  0.00  0.00     0.032 A 
ATOM      9  C9   11 d         -12.086 206.860 111.074  0.00  0.00     0.026 A 
ATOM     10  C10  11 d         -13.186 206.741 111.929  0.00  0.00     0.034 A 
ATOM     11 Cl1   11 d         -14.699 206.006 111.346  0.00  0.00    -0.084 Cl
ATOM     12  C11  11 d         -13.087 207.202 113.245  0.00  0.00     0.026 A 
ATOM     13  C12  11 d         -11.894 207.782 113.704  0.00  0.00     0.032 A 
ATOM     14  O4   11 d         -10.041 209.100 115.606  0.00  0.00    -0.271 OA
ENDROOT
BRANCH   6  15
ATOM     15  S1   11 d          -6.854 208.732 116.101  0.00  0.00    -0.144 SA
BRANCH  15  16
ATOM     16  C5   11 d          -5.223 209.523 115.752  0.00  0.00     0.187 C 
BRANCH  16  17
ATOM     17  C6   11 d          -4.154 208.526 115.429  0.00  0.00     0.182 C 
ATOM     18  O2   11 d          -2.912 208.748 115.781  0.00  0.00    -0.647 OA
ATOM     19  O3   11 d          -4.439 207.483 114.693  0.00  0.00    -0.647 OA
ENDBRANCH  16  17
ENDBRANCH  15  16
ENDBRANCH   6  15
TORSDOF 3
ENDMDL
MODEL 9
REMARK VINA RESULT:      -6.8      4.479      8.118
REMARK  3 active torsions:
REMARK  status: ('A' for Active; 'I' for Inactive)
REMARK    1  A    between atoms: C4_6  and  S1_7 
REMARK    2  A    between atoms: S1_7  and  C5_8 
REMARK    3  A    between atoms: C5_8  and  C6_9 
ROOT
ATOM      1  C1   11 d          -9.172 209.102 114.646  0.00  0.00     0.245 A 
ATOM      2  N1   11 d          -9.416 208.570 113.349  0.00  0.00    -0.251 N 
ATOM      3  C2   11 d          -8.181 208.753 112.673  0.00  0.00     0.232 A 
ATOM      4  O1   11 d          -7.955 208.411 111.461  0.00  0.00    -0.273 OA
ATOM      5  C3   11 d          -7.119 209.402 113.492  0.00  0.00     0.128 A 
ATOM      6  C4   11 d          -7.788 209.640 114.847  0.00  0.00     0.149 A 
ATOM      7  C7   11 d         -10.677 207.957 112.821  0.00  0.00     0.045 A 
ATOM      8  C8   11 d         -10.770 207.469 111.491  0.00  0.00     0.032 A 
ATOM      9  C9   11 d         -11.952 206.897 110.995  0.00  0.00     0.026 A 
ATOM     10  C10  11 d         -13.081 206.791 111.813  0.00  0.00     0.034 A 
ATOM     11 Cl1   11 d         -14.578 206.065 111.183  0.00  0.00    -0.084 Cl
ATOM     12  C11  11 d         -13.023 207.259 113.128  0.00  0.00     0.026 A 
ATOM     13  C12  11 d         -11.842 207.832 113.625  0.00  0.00     0.032 A 
ATOM     14  O4   11 d         -10.043 209.147 115.582  0.00  0.00    -0.271 OA
ENDROOT
BRANCH   6  15
ATOM     15  S1   11 d          -6.879 208.756 116.187  0.00  0.00    -0.144 SA
BRANCH  15  16
ATOM     16  C5   11 d          -5.623 210.070 116.511  0.00  0.00     0.187 C 
BRANCH  16  17
ATOM     17  C6   11 d          -5.261 210.179 117.960  0.00  0.00     0.182 C 
ATOM     18  O2   11 d          -4.660 209.188 118.569  0.00  0.00    -0.647 OA
ATOM     19  O3   11 d          -5.649 211.221 118.650  0.00  0.00    -0.647 OA
ENDBRANCH  16  17
ENDBRANCH  15  16
ENDBRANCH   6  15
TORSDOF 3
ENDMDL
MODEL 10
REMARK VINA RESULT:      -6.7      2.032      3.013
REMARK  3 active torsions:
REMARK  status: ('A' for Active; 'I' for Inactive)
REMARK    1  A    between atoms: C4_6  and  S1_7 
REMARK    2  A    between atoms: S1_7  and  C5_8 
REMARK    3  A    between atoms: C5_8  and  C6_9 
ROOT
ATOM      1  C1   11 d         -11.727 207.404 113.758  0.00  0.00     0.245 A 
ATOM      2  N1   11 d         -10.674 207.754 112.867  0.00  0.00    -0.251 N 
ATOM      3  C2   11 d         -11.175 207.383 111.592  0.00  0.00     0.232 A 
ATOM      4  O1   11 d         -10.542 207.524 110.489  0.00  0.00    -0.273 OA
ATOM      5  C3   11 d         -12.540 206.788 111.614  0.00  0.00     0.128 A 
ATOM      6  C4   11 d         -12.928 206.803 113.094  0.00  0.00     0.149 A 
ATOM      7  C7   11 d          -9.349 208.372 113.196  0.00  0.00     0.045 A 
ATOM      8  C8   11 d          -8.390 208.662 112.189  0.00  0.00     0.032 A 
ATOM      9  C9   11 d          -7.148 209.239 112.497  0.00  0.00     0.026 A 
ATOM     10  C10  11 d          -6.823 209.547 113.821  0.00  0.00     0.034 A 
ATOM     11 Cl1   11 d          -5.248 210.278 114.210  0.00  0.00    -0.084 Cl
ATOM     12  C11  11 d          -7.744 209.277 114.837  0.00  0.00     0.026 A 
ATOM     13  C12  11 d          -8.987 208.699 114.530  0.00  0.00     0.032 A 
ATOM     14  O4   11 d         -11.680 207.562 115.027  0.00  0.00    -0.271 OA
ENDROOT
BRANCH   6  15
ATOM     15  S1   11 d         -14.454 207.808 113.358  0.00  0.00    -0.144 SA
BRANCH  15  16
ATOM     16  C5   11 d         -15.448 206.493 114.188  0.00  0.00     0.187 C 
BRANCH  16  17
ATOM     17  C6   11 d         -14.871 206.076 115.505  0.00  0.00     0.182 C 
ATOM     18  O2   11 d         -14.795 204.808 115.824  0.00  0.00    -0.647 OA
ATOM     19  O3   11 d         -14.547 206.984 116.389  0.00  0.00    -0.647 OA
ENDBRANCH  16  17
ENDBRANCH  15  16
ENDBRANCH   6  15
TORSDOF 3
ENDMDL
MODEL 11
REMARK VINA RESULT:      -6.5      4.396      7.936
REMARK  3 active torsions:
REMARK  status: ('A' for Active; 'I' for Inactive)
REMARK    1  A    between atoms: C4_6  and  S1_7 
REMARK    2  A    between atoms: S1_7  and  C5_8 
REMARK    3  A    between atoms: C5_8  and  C6_9 
ROOT
ATOM      1  C1   11 d          -9.398 208.896 114.298  0.00  0.00     0.245 A 
ATOM      2  N1   11 d         -10.376 208.198 113.538  0.00  0.00    -0.251 N 
ATOM      3  C2   11 d          -9.983 208.426 112.193  0.00  0.00     0.232 A 
ATOM      4  O1   11 d         -10.596 207.973 111.166  0.00  0.00    -0.273 OA
ATOM      5  C3   11 d          -8.763 209.267 112.041  0.00  0.00     0.128 A 
ATOM      6  C4   11 d          -8.352 209.589 113.479  0.00  0.00     0.149 A 
ATOM      7  C7   11 d         -11.546 207.406 114.037  0.00  0.00     0.045 A 
ATOM      8  C8   11 d         -12.447 206.763 113.147  0.00  0.00     0.032 A 
ATOM      9  C9   11 d         -13.544 206.022 113.614  0.00  0.00     0.026 A 
ATOM     10  C10  11 d         -13.777 205.898 114.987  0.00  0.00     0.034 A 
ATOM     11 Cl1   11 d         -15.168 204.959 115.578  0.00  0.00    -0.084 Cl
ATOM     12  C11  11 d         -12.909 206.516 115.891  0.00  0.00     0.026 A 
ATOM     13  C12  11 d         -11.812 207.257 115.425  0.00  0.00     0.032 A 
ATOM     14  O4   11 d          -9.388 208.960 115.576  0.00  0.00    -0.271 OA
ENDROOT
BRANCH   6  15
ATOM     15  S1   11 d          -6.653 208.959 113.829  0.00  0.00    -0.144 SA
BRANCH  15  16
ATOM     16  C5   11 d          -6.158 210.289 115.008  0.00  0.00     0.187 C 
BRANCH  16  17
ATOM     17  C6   11 d          -4.980 209.907 115.849  0.00  0.00     0.182 C 
ATOM     18  O2   11 d          -4.960 210.185 117.129  0.00  0.00    -0.647 OA
ATOM     19  O3   11 d          -3.916 209.398 115.283  0.00  0.00    -0.647 OA
ENDBRANCH  16  17
ENDBRANCH  15  16
ENDBRANCH   6  15
TORSDOF 3
ENDMDL
MODEL 12
REMARK VINA RESULT:      -6.5      4.328      7.507
REMARK  3 active torsions:
REMARK  status: ('A' for Active; 'I' for Inactive)
REMARK    1  A    between atoms: C4_6  and  S1_7 
REMARK    2  A    between atoms: S1_7  and  C5_8 
REMARK    3  A    between atoms: C5_8  and  C6_9 
ROOT
ATOM      1  C1   11 d         -10.867 208.081 115.844  0.00  0.00     0.245 A 
ATOM      2  N1   11 d         -10.878 207.829 114.444  0.00  0.00    -0.251 N 
ATOM      3  C2   11 d          -9.680 208.436 113.984  0.00  0.00     0.232 A 
ATOM      4  O1   11 d          -9.289 208.449 112.766  0.00  0.00    -0.273 OA
ATOM      5  C3   11 d          -8.871 209.091 115.049  0.00  0.00     0.128 A 
ATOM      6  C4   11 d          -9.674 208.848 116.329  0.00  0.00     0.149 A 
ATOM      7  C7   11 d         -11.910 207.095 113.643  0.00  0.00     0.045 A 
ATOM      8  C8   11 d         -11.785 206.929 112.238  0.00  0.00     0.032 A 
ATOM      9  C9   11 d         -12.751 206.243 111.487  0.00  0.00     0.026 A 
ATOM     10  C10  11 d         -13.877 205.700 112.114  0.00  0.00     0.034 A 
ATOM     11 Cl1   11 d         -15.102 204.831 111.160  0.00  0.00    -0.084 Cl
ATOM     12  C11  11 d         -14.031 205.844 113.495  0.00  0.00     0.026 A 
ATOM     13  C12  11 d         -13.065 206.530 114.248  0.00  0.00     0.032 A 
ATOM     14  O4   11 d         -11.788 207.709 116.651  0.00  0.00    -0.271 OA
ENDROOT
BRANCH   6  15
ATOM     15  S1   11 d          -8.676 207.896 117.554  0.00  0.00    -0.144 SA
BRANCH  15  16
ATOM     16  C5   11 d          -9.498 208.551 119.071  0.00  0.00     0.187 C 
BRANCH  16  17
ATOM     17  C6   11 d          -8.520 209.050 120.089  0.00  0.00     0.182 C 
ATOM     18  O2   11 d          -7.257 209.202 119.776  0.00  0.00    -0.647 OA
ATOM     19  O3   11 d          -8.903 209.225 121.328  0.00  0.00    -0.647 OA
ENDBRANCH  16  17
ENDBRANCH  15  16
ENDBRANCH   6  15
TORSDOF 3
ENDMDL
MODEL 13
REMARK VINA RESULT:      -6.4      4.480      5.947
REMARK  3 active torsions:
REMARK  status: ('A' for Active; 'I' for Inactive)
REMARK    1  A    between atoms: C4_6  and  S1_7 
REMARK    2  A    between atoms: S1_7  and  C5_8 
REMARK    3  A    between atoms: C5_8  and  C6_9 
ROOT
ATOM      1  C1   11 d         -13.265 207.505 116.622  0.00  0.00     0.245 A 
ATOM      2  N1   11 d         -12.062 207.704 115.888  0.00  0.00    -0.251 N 
ATOM      3  C2   11 d         -11.101 207.998 116.891  0.00  0.00     0.232 A 
ATOM      4  O1   11 d          -9.867 208.250 116.668  0.00  0.00    -0.273 OA
ATOM      5  C3   11 d         -11.640 208.003 118.280  0.00  0.00     0.128 A 
ATOM      6  C4   11 d         -13.121 207.661 118.105  0.00  0.00     0.149 A 
ATOM      7  C7   11 d         -11.857 207.622 114.406  0.00  0.00     0.045 A 
ATOM      8  C8   11 d         -10.587 207.854 113.815  0.00  0.00     0.032 A 
ATOM      9  C9   11 d         -10.394 207.778 112.427  0.00  0.00     0.026 A 
ATOM     10  C10  11 d         -11.464 207.467 111.582  0.00  0.00     0.034 A 
ATOM     11 Cl1   11 d         -11.218 207.373 109.822  0.00  0.00    -0.084 Cl
ATOM     12  C11  11 d         -12.727 207.232 112.131  0.00  0.00     0.026 A 
ATOM     13  C12  11 d         -12.921 207.307 113.519  0.00  0.00     0.032 A 
ATOM     14  O4   11 d         -14.396 207.228 116.091  0.00  0.00    -0.271 OA
ENDROOT
BRANCH   6  15
ATOM     15  S1   11 d         -13.545 206.114 119.019  0.00  0.00    -0.144 SA
BRANCH  15  16
ATOM     16  C5   11 d         -14.781 206.863 120.166  0.00  0.00     0.187 C 
BRANCH  16  17
ATOM     17  C6   11 d         -15.002 206.038 121.397  0.00  0.00     0.182 C 
ATOM     18  O2   11 d         -14.832 206.562 122.584  0.00  0.00    -0.647 OA
ATOM     19  O3   11 d         -15.252 204.759 121.285  0.00  0.00    -0.647 OA
ENDBRANCH  16  17
ENDBRANCH  15  16
ENDBRANCH   6  15
TORSDOF 3
ENDMDL
MODEL 14
REMARK VINA RESULT:      -6.4      4.226      7.576
REMARK  3 active torsions:
REMARK  status: ('A' for Active; 'I' for Inactive)
REMARK    1  A    between atoms: C4_6  and  S1_7 
REMARK    2  A    between atoms: S1_7  and  C5_8 
REMARK    3  A    between atoms: C5_8  and  C6_9 
ROOT
ATOM      1  C1   11 d         -10.783 208.097 115.751  0.00  0.00     0.245 A 
ATOM      2  N1   11 d         -10.837 207.852 114.351  0.00  0.00    -0.251 N 
ATOM      3  C2   11 d          -9.661 208.474 113.855  0.00  0.00     0.232 A 
ATOM      4  O1   11 d          -9.311 208.496 112.625  0.00  0.00    -0.273 OA
ATOM      5  C3   11 d          -8.825 209.132 114.897  0.00  0.00     0.128 A 
ATOM      6  C4   11 d          -9.583 208.875 116.200  0.00  0.00     0.149 A 
ATOM      7  C7   11 d         -11.887 207.111 113.580  0.00  0.00     0.045 A 
ATOM      8  C8   11 d         -11.806 206.952 112.171  0.00  0.00     0.032 A 
ATOM      9  C9   11 d         -12.789 206.260 111.448  0.00  0.00     0.026 A 
ATOM     10  C10  11 d         -13.888 205.701 112.109  0.00  0.00     0.034 A 
ATOM     11 Cl1   11 d         -15.134 204.824 111.191  0.00  0.00    -0.084 Cl
ATOM     12  C11  11 d         -13.998 205.838 113.496  0.00  0.00     0.026 A 
ATOM     13  C12  11 d         -13.015 206.531 114.219  0.00  0.00     0.032 A 
ATOM     14  O4   11 d         -11.674 207.712 116.586  0.00  0.00    -0.271 OA
ENDROOT
BRANCH   6  15
ATOM     15  S1   11 d          -8.536 207.927 117.388  0.00  0.00    -0.144 SA
BRANCH  15  16
ATOM     16  C5   11 d          -6.904 208.565 116.806  0.00  0.00     0.187 C 
BRANCH  16  17
ATOM     17  C6   11 d          -5.880 207.482 116.658  0.00  0.00     0.182 C 
ATOM     18  O2   11 d          -5.444 206.835 117.709  0.00  0.00    -0.647 OA
ATOM     19  O3   11 d          -5.334 207.260 115.490  0.00  0.00    -0.647 OA
ENDBRANCH  16  17
ENDBRANCH  15  16
ENDBRANCH   6  15
TORSDOF 3
ENDMDL
MODEL 15
REMARK VINA RESULT:      -6.1      4.406      7.069
REMARK  3 active torsions:
REMARK  status: ('A' for Active; 'I' for Inactive)
REMARK    1  A    between atoms: C4_6  and  S1_7 
REMARK    2  A    between atoms: S1_7  and  C5_8 
REMARK    3  A    between atoms: C5_8  and  C6_9 
ROOT
ATOM      1  C1   11 d          -9.448 208.602 115.117  0.00  0.00     0.245 A 
ATOM      2  N1   11 d          -9.557 208.433 113.709  0.00  0.00    -0.251 N 
ATOM      3  C2   11 d          -8.336 208.960 113.212  0.00  0.00     0.232 A 
ATOM      4  O1   11 d          -8.011 209.009 111.975  0.00  0.00    -0.273 OA
ATOM      5  C3   11 d          -7.416 209.482 114.261  0.00  0.00     0.128 A 
ATOM      6  C4   11 d          -8.168 209.236 115.570  0.00  0.00     0.149 A 
ATOM      7  C7   11 d         -10.691 207.837 112.932  0.00  0.00     0.045 A 
ATOM      8  C8   11 d         -10.656 207.741 111.515  0.00  0.00     0.032 A 
ATOM      9  C9   11 d         -11.718 207.184 110.786  0.00  0.00     0.026 A 
ATOM     10  C10  11 d         -12.852 206.704 111.449  0.00  0.00     0.034 A 
ATOM     11 Cl1   11 d         -14.199 205.999 110.524  0.00  0.00    -0.084 Cl
ATOM     12  C11  11 d         -12.919 206.782 112.843  0.00  0.00     0.026 A 
ATOM     13  C12  11 d         -11.857 207.339 113.572  0.00  0.00     0.032 A 
ATOM     14  O4   11 d         -10.355 208.266 115.955  0.00  0.00    -0.271 OA
ENDROOT
BRANCH   6  15
ATOM     15  S1   11 d          -7.195 208.133 116.685  0.00  0.00    -0.144 SA
BRANCH  15  16
ATOM     16  C5   11 d          -8.001 208.642 118.265  0.00  0.00     0.187 C 
BRANCH  16  17
ATOM     17  C6   11 d          -8.698 207.508 118.949  0.00  0.00     0.182 C 
ATOM     18  O2   11 d          -9.951 207.622 119.313  0.00  0.00    -0.647 OA
ATOM     19  O3   11 d          -8.023 206.440 119.289  0.00  0.00    -0.647 OA
ENDBRANCH  16  17
ENDBRANCH  15  16
ENDBRANCH   6  15
TORSDOF 3
ENDMDL
MODEL 16
REMARK VINA RESULT:      -6.1      4.392      7.597
REMARK  3 active torsions:
REMARK  status: ('A' for Active; 'I' for Inactive)
REMARK    1  A    between atoms: C4_6  and  S1_7 
REMARK    2  A    between atoms: S1_7  and  C5_8 
REMARK    3  A    between atoms: C5_8  and  C6_9 
ROOT
ATOM      1  C1   11 d          -8.883 208.235 113.668  0.00  0.00     0.245 A 
ATOM      2  N1   11 d         -10.267 208.101 113.969  0.00  0.00    -0.251 N 
ATOM      3  C2   11 d         -10.343 208.417 115.351  0.00  0.00     0.232 A 
ATOM      4  O1   11 d         -11.420 208.418 116.042  0.00  0.00    -0.273 OA
ATOM      5  C3   11 d          -9.036 208.756 115.979  0.00  0.00     0.128 A 
ATOM      6  C4   11 d          -8.030 208.639 114.832  0.00  0.00     0.149 A 
ATOM      7  C7   11 d         -11.384 207.718 113.046  0.00  0.00     0.045 A 
ATOM      8  C8   11 d         -12.726 207.619 113.498  0.00  0.00     0.032 A 
ATOM      9  C9   11 d         -13.772 207.259 112.635  0.00  0.00     0.026 A 
ATOM     10  C10  11 d         -13.511 206.986 111.288  0.00  0.00     0.034 A 
ATOM     11 Cl1   11 d         -14.838 206.528 110.194  0.00  0.00    -0.084 Cl
ATOM     12  C11  11 d         -12.202 207.075 110.809  0.00  0.00     0.026 A 
ATOM     13  C12  11 d         -11.155 207.434 111.673  0.00  0.00     0.032 A 
ATOM     14  O4   11 d          -8.373 208.024 112.514  0.00  0.00    -0.271 OA
ENDROOT
BRANCH   6  15
ATOM     15  S1   11 d          -7.173 210.249 114.550  0.00  0.00    -0.144 SA
BRANCH  15  16
ATOM     16  C5   11 d          -5.580 209.801 115.368  0.00  0.00     0.187 C 
BRANCH  16  17
ATOM     17  C6   11 d          -4.546 209.323 114.397  0.00  0.00     0.182 C 
ATOM     18  O2   11 d          -4.885 208.995 113.176  0.00  0.00    -0.647 OA
ATOM     19  O3   11 d          -3.318 209.121 114.802  0.00  0.00    -0.647 OA
ENDBRANCH  16  17
ENDBRANCH  15  16
ENDBRANCH   6  15
TORSDOF 3
ENDMDL
MODEL 17
REMARK VINA RESULT:      -5.9      5.127      6.600
REMARK  3 active torsions:
REMARK  status: ('A' for Active; 'I' for Inactive)
REMARK    1  A    between atoms: C4_6  and  S1_7 
REMARK    2  A    between atoms: S1_7  and  C5_8 
REMARK    3  A    between atoms: C5_8  and  C6_9 
ROOT
ATOM      1  C1   11 d         -12.600 206.771 118.176  0.00  0.00     0.245 A 
ATOM      2  N1   11 d         -12.734 206.379 116.815  0.00  0.00    -0.251 N 
ATOM      3  C2   11 d         -13.712 205.351 116.855  0.00  0.00     0.232 A 
ATOM      4  O1   11 d         -14.139 204.709 115.834  0.00  0.00    -0.273 OA
ATOM      5  C3   11 d         -14.230 205.045 118.218  0.00  0.00     0.128 A 
ATOM      6  C4   11 d         -13.477 206.017 119.129  0.00  0.00     0.149 A 
ATOM      7  C7   11 d         -12.015 206.925 115.619  0.00  0.00     0.045 A 
ATOM      8  C8   11 d         -12.254 206.425 114.311  0.00  0.00     0.032 A 
ATOM      9  C9   11 d         -11.580 206.934 113.191  0.00  0.00     0.026 A 
ATOM     10  C10  11 d         -10.645 207.963 113.339  0.00  0.00     0.034 A 
ATOM     11 Cl1   11 d          -9.790 208.608 111.917  0.00  0.00    -0.084 Cl
ATOM     12  C11  11 d         -10.386 208.480 114.611  0.00  0.00     0.026 A 
ATOM     13  C12  11 d         -11.060 207.970 115.732  0.00  0.00     0.032 A 
ATOM     14  O4   11 d         -11.797 207.677 118.590  0.00  0.00    -0.271 OA
ENDROOT
BRANCH   6  15
ATOM     15  S1   11 d         -14.656 207.120 120.021  0.00  0.00    -0.144 SA
BRANCH  15  16
ATOM     16  C5   11 d         -15.381 205.829 121.124  0.00  0.00     0.187 C 
BRANCH  16  17
ATOM     17  C6   11 d         -15.064 206.059 122.569  0.00  0.00     0.182 C 
ATOM     18  O2   11 d         -14.100 206.875 122.914  0.00  0.00    -0.647 OA
ATOM     19  O3   11 d         -15.675 205.356 123.488  0.00  0.00    -0.647 OA
ENDBRANCH  16  17
ENDBRANCH  15  16
ENDBRANCH   6  15
TORSDOF 3
ENDMDL
MODEL 18
REMARK VINA RESULT:      -5.9      3.933      5.996
REMARK  3 active torsions:
REMARK  status: ('A' for Active; 'I' for Inactive)
REMARK    1  A    between atoms: C4_6  and  S1_7 
REMARK    2  A    between atoms: S1_7  and  C5_8 
REMARK    3  A    between atoms: C5_8  and  C6_9 
ROOT
ATOM      1  C1   11 d         -11.552 208.490 115.577  0.00  0.00     0.245 A 
ATOM      2  N1   11 d         -11.161 208.150 114.252  0.00  0.00    -0.251 N 
ATOM      3  C2   11 d          -9.753 208.335 114.259  0.00  0.00     0.232 A 
ATOM      4  O1   11 d          -8.987 208.140 113.254  0.00  0.00    -0.273 OA
ATOM      5  C3   11 d          -9.198 208.796 115.562  0.00  0.00     0.128 A 
ATOM      6  C4   11 d         -10.423 208.900 116.473  0.00  0.00     0.149 A 
ATOM      7  C7   11 d         -12.029 207.700 113.116  0.00  0.00     0.045 A 
ATOM      8  C8   11 d         -11.489 207.399 111.838  0.00  0.00     0.032 A 
ATOM      9  C9   11 d         -12.301 206.979 110.773  0.00  0.00     0.026 A 
ATOM     10  C10  11 d         -13.681 206.845 110.951  0.00  0.00     0.034 A 
ATOM     11 Cl1   11 d         -14.710 206.313 109.600  0.00  0.00    -0.084 Cl
ATOM     12  C11  11 d         -14.246 207.131 112.197  0.00  0.00     0.026 A 
ATOM     13  C12  11 d         -13.434 207.552 113.262  0.00  0.00     0.032 A 
ATOM     14  O4   11 d         -12.760 208.472 115.999  0.00  0.00    -0.271 OA
ENDROOT
BRANCH   6  15
ATOM     15  S1   11 d         -10.245 207.788 117.934  0.00  0.00    -0.144 SA
BRANCH  15  16
ATOM     16  C5   11 d         -11.235 206.380 117.266  0.00  0.00     0.187 C 
BRANCH  16  17
ATOM     17  C6   11 d         -12.259 205.881 118.238  0.00  0.00     0.182 C 
ATOM     18  O2   11 d         -13.258 205.142 117.827  0.00  0.00    -0.647 OA
ATOM     19  O3   11 d         -12.221 206.280 119.484  0.00  0.00    -0.647 OA
ENDBRANCH  16  17
ENDBRANCH  15  16
ENDBRANCH   6  15
TORSDOF 3
ENDMDL
MODEL 19
REMARK VINA RESULT:      -5.8      6.104      7.311
REMARK  3 active torsions:
REMARK  status: ('A' for Active; 'I' for Inactive)
REMARK    1  A    between atoms: C4_6  and  S1_7 
REMARK    2  A    between atoms: S1_7  and  C5_8 
REMARK    3  A    between atoms: C5_8  and  C6_9 
ROOT
ATOM      1  C1   11 d         -14.337 205.446 119.867  0.00  0.00     0.245 A 
ATOM      2  N1   11 d         -14.096 205.146 118.498  0.00  0.00    -0.251 N 
ATOM      3  C2   11 d         -14.878 203.984 118.265  0.00  0.00     0.232 A 
ATOM      4  O1   11 d         -14.955 203.367 117.147  0.00  0.00    -0.273 OA
ATOM      5  C3   11 d         -15.634 203.500 119.454  0.00  0.00     0.128 A 
ATOM      6  C4   11 d         -15.272 204.499 120.555  0.00  0.00     0.149 A 
ATOM      7  C7   11 d         -13.224 205.883 117.527  0.00  0.00     0.045 A 
ATOM      8  C8   11 d         -13.078 205.455 116.181  0.00  0.00     0.032 A 
ATOM      9  C9   11 d         -12.260 206.144 115.272  0.00  0.00     0.026 A 
ATOM     10  C10  11 d         -11.561 207.285 115.677  0.00  0.00     0.034 A 
ATOM     11 Cl1   11 d         -10.523 208.157 114.524  0.00  0.00    -0.084 Cl
ATOM     12  C11  11 d         -11.683 207.734 116.995  0.00  0.00     0.026 A 
ATOM     13  C12  11 d         -12.500 207.045 117.905  0.00  0.00     0.032 A 
ATOM     14  O4   11 d         -13.805 206.426 120.495  0.00  0.00    -0.271 OA
ENDROOT
BRANCH   6  15
ATOM     15  S1   11 d         -16.785 205.344 121.191  0.00  0.00    -0.144 SA
BRANCH  15  16
ATOM     16  C5   11 d         -18.009 204.109 120.572  0.00  0.00     0.187 C 
BRANCH  16  17
ATOM     17  C6   11 d         -19.390 204.675 120.447  0.00  0.00     0.182 C 
ATOM     18  O2   11 d         -20.354 203.961 119.923  0.00  0.00    -0.647 OA
ATOM     19  O3   11 d         -19.608 205.927 120.757  0.00  0.00    -0.647 OA
ENDBRANCH  16  17
ENDBRANCH  15  16
ENDBRANCH   6  15
TORSDOF 3
ENDMDL
MODEL 20
REMARK VINA RESULT:      -5.7      3.399      4.992
REMARK  3 active torsions:
REMARK  status: ('A' for Active; 'I' for Inactive)
REMARK    1  A    between atoms: C4_6  and  S1_7 
REMARK    2  A    between atoms: S1_7  and  C5_8 
REMARK    3  A    between atoms: C5_8  and  C6_9 
ROOT
ATOM      1  C1   11 d          -7.912 208.703 112.761  0.00  0.00     0.245 A 
ATOM      2  N1   11 d          -6.920 208.685 113.780  0.00  0.00    -0.251 N 
ATOM      3  C2   11 d          -7.650 208.964 114.966  0.00  0.00     0.232 A 
ATOM      4  O1   11 d          -7.139 209.046 116.136  0.00  0.00    -0.273 OA
ATOM      5  C3   11 d          -9.110 209.172 114.756  0.00  0.00     0.128 A 
ATOM      6  C4   11 d          -9.299 208.990 113.249  0.00  0.00     0.149 A 
ATOM      7  C7   11 d          -5.450 208.430 113.638  0.00  0.00     0.045 A 
ATOM      8  C8   11 d          -4.577 208.451 114.758  0.00  0.00     0.032 A 
ATOM      9  C9   11 d          -3.200 208.213 114.626  0.00  0.00     0.026 A 
ATOM     10  C10  11 d          -2.649 207.946 113.369  0.00  0.00     0.034 A 
ATOM     11 Cl1   11 d          -0.903 207.645 113.203  0.00  0.00    -0.084 Cl
ATOM     12  C11  11 d          -3.480 207.916 112.246  0.00  0.00     0.026 A 
ATOM     13  C12  11 d          -4.857 208.154 112.377  0.00  0.00     0.032 A 
ATOM     14  O4   11 d          -7.673 208.508 111.519  0.00  0.00    -0.271 OA
ENDROOT
BRANCH   6  15
ATOM     15  S1   11 d         -10.467 207.604 112.902  0.00  0.00    -0.144 SA
BRANCH  15  16
ATOM     16  C5   11 d         -11.399 207.691 114.493  0.00  0.00     0.187 C 
BRANCH  16  17
ATOM     17  C6   11 d         -12.162 206.437 114.785  0.00  0.00     0.182 C 
ATOM     18  O2   11 d         -11.588 205.444 115.418  0.00  0.00    -0.647 OA
ATOM     19  O3   11 d         -13.370 206.284 114.307  0.00  0.00    -0.647 OA
ENDBRANCH  16  17
ENDBRANCH  15  16
ENDBRANCH   6  15
TORSDOF 3
ENDMDL
