MODEL 1
REMARK VINA RESULT:      -9.1      0.000      0.000
REMARK  1 active torsions:
REMARK  status: ('A' for Active; 'I' for Inactive)
REMARK    1  A    between atoms: N2_6  and  C5_7 
ROOT
ATOM      1  C1   11 d          -8.291 208.680 112.610  0.00  0.00     0.283 A 
ATOM      2  C2   11 d          -9.619 208.273 112.720  0.00  0.00     0.166 A 
ATOM      3  C3   11 d         -10.231 208.209 113.950  0.00  0.00     0.185 A 
ATOM      4  N1   11 d          -9.569 208.536 115.094  0.00  0.00    -0.285 N 
ATOM      5  C4   11 d          -8.251 208.944 114.996  0.00  0.00     0.333 A 
ATOM      6  N2   11 d          -7.598 209.022 113.766  0.00  0.00    -0.264 N 
ATOM      7  O1   11 d          -7.628 209.251 116.046  0.00  0.00    -0.246 OA
ATOM      8  C7   11 d         -10.289 208.449 116.377  0.00  0.00     0.163 C 
ATOM      9  N3   11 d         -11.513 207.788 113.791  0.00  0.00    -0.043 NA
ATOM     10  C8   11 d         -11.652 207.605 112.457  0.00  0.00     0.712 A 
ATOM     11  N4   11 d         -12.633 207.205 111.589  0.00  0.00    -0.180 N 
ATOM     12  C9   11 d         -13.951 206.826 111.909  0.00  0.00     0.051 A 
ATOM     13  C10  11 d         -14.852 206.436 110.884  0.00  0.00     0.030 A 
ATOM     14  C11  11 d         -16.170 206.054 111.177  0.00  0.00     0.002 A 
ATOM     15  C12  11 d         -16.623 206.051 112.500  0.00  0.00     0.000 A 
ATOM     16  C13  11 d         -15.757 206.430 113.531  0.00  0.00     0.002 A 
ATOM     17  C14  11 d         -14.439 206.814 113.241  0.00  0.00     0.030 A 
ATOM     18  C15  11 d         -12.083 207.239 110.269  0.00  0.00     0.168 A 
ATOM     19  C16  11 d         -10.611 207.717 110.394  0.00  0.00     0.169 A 
ATOM     20  N5   11 d         -10.537 207.890 111.821  0.00  0.00    -0.170 N 
ATOM     21  O2   11 d          -7.765 208.728 111.469  0.00  0.00    -0.265 OA
ENDROOT
BRANCH   6  22
ATOM     22  C5   11 d          -6.174 209.475 113.787  0.00  0.00     0.133 C 
ATOM     23  C6   11 d          -5.034 208.460 113.686  0.00  0.00     0.027 C 
ENDBRANCH   6  22
TORSDOF 1
ENDMDL
MODEL 2
REMARK VINA RESULT:      -8.8      2.037      3.700
REMARK  1 active torsions:
REMARK  status: ('A' for Active; 'I' for Inactive)
REMARK    1  A    between atoms: N2_6  and  C5_7 
ROOT
ATOM      1  C1   11 d         -10.311 207.532 117.032  0.00  0.00     0.283 A 
ATOM      2  C2   11 d         -11.196 207.453 115.959  0.00  0.00     0.166 A 
ATOM      3  C3   11 d         -10.858 207.980 114.734  0.00  0.00     0.185 A 
ATOM      4  N1   11 d          -9.660 208.592 114.527  0.00  0.00    -0.285 N 
ATOM      5  C4   11 d          -8.772 208.673 115.584  0.00  0.00     0.333 A 
ATOM      6  N2   11 d          -9.080 208.149 116.840  0.00  0.00    -0.264 N 
ATOM      7  O1   11 d          -7.660 209.235 115.405  0.00  0.00    -0.246 OA
ATOM      8  C7   11 d          -9.363 209.129 113.186  0.00  0.00     0.163 C 
ATOM      9  N3   11 d         -11.881 207.778 113.862  0.00  0.00    -0.043 NA
ATOM     10  C8   11 d         -12.824 207.128 114.583  0.00  0.00     0.712 A 
ATOM     11  N4   11 d         -14.078 206.617 114.378  0.00  0.00    -0.180 N 
ATOM     12  C9   11 d         -14.822 206.638 113.183  0.00  0.00     0.051 A 
ATOM     13  C10  11 d         -16.117 206.059 113.136  0.00  0.00     0.030 A 
ATOM     14  C11  11 d         -16.878 206.068 111.957  0.00  0.00     0.002 A 
ATOM     15  C12  11 d         -16.366 206.652 110.795  0.00  0.00     0.000 A 
ATOM     16  C13  11 d         -15.093 207.231 110.811  0.00  0.00     0.002 A 
ATOM     17  C14  11 d         -14.329 207.224 111.988  0.00  0.00     0.030 A 
ATOM     18  C15  11 d         -14.518 206.043 115.612  0.00  0.00     0.168 A 
ATOM     19  C16  11 d         -13.380 206.246 116.649  0.00  0.00     0.169 A 
ATOM     20  N5   11 d         -12.424 206.934 115.820  0.00  0.00    -0.170 N 
ATOM     21  O2   11 d         -10.653 207.038 118.136  0.00  0.00    -0.265 OA
ENDROOT
BRANCH   6  22
ATOM     22  C5   11 d          -8.041 208.298 117.904  0.00  0.00     0.133 C 
ATOM     23  C6   11 d          -7.092 207.144 118.231  0.00  0.00     0.027 C 
ENDBRANCH   6  22
TORSDOF 1
ENDMDL
MODEL 3
REMARK VINA RESULT:      -8.7      2.654      6.888
REMARK  1 active torsions:
REMARK  status: ('A' for Active; 'I' for Inactive)
REMARK    1  A    between atoms: N2_6  and  C5_7 
ROOT
ATOM      1  C1   11 d         -13.719 206.556 111.789  0.00  0.00     0.283 A 
ATOM      2  C2   11 d         -12.585 207.035 112.442  0.00  0.00     0.166 A 
ATOM      3  C3   11 d         -12.529 207.063 113.816  0.00  0.00     0.185 A 
ATOM      4  N1   11 d         -13.568 206.629 114.581  0.00  0.00    -0.285 N 
ATOM      5  C4   11 d         -14.697 206.149 113.944  0.00  0.00     0.333 A 
ATOM      6  N2   11 d         -14.790 206.105 112.552  0.00  0.00    -0.264 N 
ATOM      7  O1   11 d         -15.664 205.743 114.640  0.00  0.00    -0.246 OA
ATOM      8  C7   11 d         -13.436 206.683 116.049  0.00  0.00     0.163 C 
ATOM      9  N3   11 d         -11.329 207.569 114.205  0.00  0.00    -0.043 NA
ATOM     10  C8   11 d         -10.679 207.839 113.048  0.00  0.00     0.712 A 
ATOM     11  N4   11 d          -9.466 208.348 112.667  0.00  0.00    -0.180 N 
ATOM     12  C9   11 d          -8.424 208.788 113.506  0.00  0.00     0.051 A 
ATOM     13  C10  11 d          -7.220 209.292 112.948  0.00  0.00     0.030 A 
ATOM     14  C11  11 d          -6.167 209.735 113.764  0.00  0.00     0.002 A 
ATOM     15  C12  11 d          -6.288 209.686 115.155  0.00  0.00     0.000 A 
ATOM     16  C13  11 d          -7.463 209.194 115.733  0.00  0.00     0.002 A 
ATOM     17  C14  11 d          -8.518 208.750 114.922  0.00  0.00     0.030 A 
ATOM     18  C15  11 d          -9.433 208.360 111.237  0.00  0.00     0.168 A 
ATOM     19  C16  11 d         -10.787 207.787 110.738  0.00  0.00     0.169 A 
ATOM     20  N5   11 d         -11.416 207.526 112.006  0.00  0.00    -0.170 N 
ATOM     21  O2   11 d         -13.735 206.544 110.532  0.00  0.00    -0.265 OA
ENDROOT
BRANCH   6  22
ATOM     22  C5   11 d         -16.060 205.566 111.980  0.00  0.00     0.133 C 
ATOM     23  C6   11 d         -17.165 206.514 111.510  0.00  0.00     0.027 C 
ENDBRANCH   6  22
TORSDOF 1
ENDMDL
MODEL 4
REMARK VINA RESULT:      -8.5      2.468      7.453
REMARK  1 active torsions:
REMARK  status: ('A' for Active; 'I' for Inactive)
REMARK    1  A    between atoms: N2_6  and  C5_7 
ROOT
ATOM      1  C1   11 d         -13.960 206.490 113.168  0.00  0.00     0.283 A 
ATOM      2  C2   11 d         -12.679 207.035 113.229  0.00  0.00     0.166 A 
ATOM      3  C3   11 d         -11.979 207.306 112.077  0.00  0.00     0.185 A 
ATOM      4  N1   11 d         -12.504 207.055 110.847  0.00  0.00    -0.285 N 
ATOM      5  C4   11 d         -13.776 206.516 110.774  0.00  0.00     0.333 A 
ATOM      6  N2   11 d         -14.516 206.229 111.921  0.00  0.00    -0.264 N 
ATOM      7  O1   11 d         -14.274 206.280 109.642  0.00  0.00    -0.246 OA
ATOM      8  C7   11 d         -11.699 207.375 109.654  0.00  0.00     0.163 C 
ATOM      9  N3   11 d         -10.767 207.828 112.401  0.00  0.00    -0.043 NA
ATOM     10  C8   11 d         -10.759 207.862 113.755  0.00  0.00     0.712 A 
ATOM     11  N4   11 d          -9.901 208.249 114.750  0.00  0.00    -0.180 N 
ATOM     12  C9   11 d          -8.612 208.795 114.601  0.00  0.00     0.051 A 
ATOM     13  C10  11 d          -7.846 209.147 115.743  0.00  0.00     0.030 A 
ATOM     14  C11  11 d          -6.560 209.692 115.619  0.00  0.00     0.002 A 
ATOM     15  C12  11 d          -6.004 209.902 114.354  0.00  0.00     0.000 A 
ATOM     16  C13  11 d          -6.735 209.564 113.210  0.00  0.00     0.002 A 
ATOM     17  C14  11 d          -8.022 209.019 113.329  0.00  0.00     0.030 A 
ATOM     18  C15  11 d         -10.550 208.000 116.001  0.00  0.00     0.168 A 
ATOM     19  C16  11 d         -11.948 207.401 115.685  0.00  0.00     0.169 A 
ATOM     20  N5   11 d         -11.885 207.396 114.247  0.00  0.00    -0.170 N 
ATOM     21  O2   11 d         -14.571 206.257 114.241  0.00  0.00    -0.265 OA
ENDROOT
BRANCH   6  22
ATOM     22  C5   11 d         -15.878 205.648 111.714  0.00  0.00     0.133 C 
ATOM     23  C6   11 d         -17.101 206.560 111.591  0.00  0.00     0.027 C 
ENDBRANCH   6  22
TORSDOF 1
ENDMDL
MODEL 5
REMARK VINA RESULT:      -8.1      3.983      6.390
REMARK  1 active torsions:
REMARK  status: ('A' for Active; 'I' for Inactive)
REMARK    1  A    between atoms: N2_6  and  C5_7 
ROOT
ATOM      1  C1   11 d         -14.135 205.149 117.411  0.00  0.00     0.283 A 
ATOM      2  C2   11 d         -13.392 205.706 116.373  0.00  0.00     0.166 A 
ATOM      3  C3   11 d         -12.226 206.387 116.635  0.00  0.00     0.185 A 
ATOM      4  N1   11 d         -11.761 206.542 117.905  0.00  0.00    -0.285 N 
ATOM      5  C4   11 d         -12.489 205.991 118.943  0.00  0.00     0.333 A 
ATOM      6  N2   11 d         -13.675 205.293 118.715  0.00  0.00    -0.264 N 
ATOM      7  O1   11 d         -12.068 206.126 120.122  0.00  0.00    -0.246 OA
ATOM      8  C7   11 d         -10.501 207.280 118.111  0.00  0.00     0.163 C 
ATOM      9  N3   11 d         -11.694 206.831 115.466  0.00  0.00    -0.043 NA
ATOM     10  C8   11 d         -12.555 206.404 114.513  0.00  0.00     0.712 A 
ATOM     11  N4   11 d         -12.668 206.474 113.150  0.00  0.00    -0.180 N 
ATOM     12  C9   11 d         -11.783 207.101 112.251  0.00  0.00     0.051 A 
ATOM     13  C10  11 d         -12.046 207.082 110.857  0.00  0.00     0.030 A 
ATOM     14  C11  11 d         -11.179 207.699 109.943  0.00  0.00     0.002 A 
ATOM     15  C12  11 d         -10.027 208.350 110.396  0.00  0.00     0.000 A 
ATOM     16  C13  11 d          -9.743 208.385 111.764  0.00  0.00     0.002 A 
ATOM     17  C14  11 d         -10.607 207.769 112.682  0.00  0.00     0.030 A 
ATOM     18  C15  11 d         -13.867 205.786 112.780  0.00  0.00     0.168 A 
ATOM     19  C16  11 d         -14.518 205.256 114.086  0.00  0.00     0.169 A 
ATOM     20  N5   11 d         -13.558 205.740 115.043  0.00  0.00    -0.170 N 
ATOM     21  O2   11 d         -15.195 204.532 117.135  0.00  0.00    -0.265 OA
ENDROOT
BRANCH   6  22
ATOM     22  C5   11 d         -14.374 204.743 119.917  0.00  0.00     0.133 C 
ATOM     23  C6   11 d         -15.475 205.547 120.611  0.00  0.00     0.027 C 
ENDBRANCH   6  22
TORSDOF 1
ENDMDL
MODEL 6
REMARK VINA RESULT:      -7.7      3.163      7.591
REMARK  1 active torsions:
REMARK  status: ('A' for Active; 'I' for Inactive)
REMARK    1  A    between atoms: N2_6  and  C5_7 
ROOT
ATOM      1  C1   11 d         -14.389 205.902 113.823  0.00  0.00     0.283 A 
ATOM      2  C2   11 d         -13.262 206.329 114.522  0.00  0.00     0.166 A 
ATOM      3  C3   11 d         -12.196 206.886 113.856  0.00  0.00     0.185 A 
ATOM      4  N1   11 d         -12.201 207.039 112.503  0.00  0.00    -0.285 N 
ATOM      5  C4   11 d         -13.316 206.620 111.799  0.00  0.00     0.333 A 
ATOM      6  N2   11 d         -14.416 206.052 112.442  0.00  0.00    -0.264 N 
ATOM      7  O1   11 d         -13.334 206.758 110.548  0.00  0.00    -0.246 OA
ATOM      8  C7   11 d         -11.025 207.649 111.856  0.00  0.00     0.163 C 
ATOM      9  N3   11 d         -11.230 207.217 114.753  0.00  0.00    -0.043 NA
ATOM     10  C8   11 d         -11.737 206.851 115.954  0.00  0.00     0.712 A 
ATOM     11  N4   11 d         -11.344 206.877 117.265  0.00  0.00    -0.180 N 
ATOM     12  C9   11 d         -10.129 207.367 117.783  0.00  0.00     0.051 A 
ATOM     13  C10  11 d          -9.875 207.321 119.178  0.00  0.00     0.030 A 
ATOM     14  C11  11 d          -8.673 207.803 119.717  0.00  0.00     0.002 A 
ATOM     15  C12  11 d          -7.694 208.344 118.878  0.00  0.00     0.000 A 
ATOM     16  C13  11 d          -7.916 208.401 117.499  0.00  0.00     0.002 A 
ATOM     17  C14  11 d          -9.118 207.920 116.956  0.00  0.00     0.030 A 
ATOM     18  C15  11 d         -12.401 206.309 118.044  0.00  0.00     0.168 A 
ATOM     19  C16  11 d         -13.537 205.912 117.062  0.00  0.00     0.169 A 
ATOM     20  N5   11 d         -12.935 206.327 115.822  0.00  0.00    -0.170 N 
ATOM     21  O2   11 d         -15.345 205.398 114.466  0.00  0.00    -0.265 OA
ENDROOT
BRANCH   6  22
ATOM     22  C5   11 d         -15.561 205.638 111.575  0.00  0.00     0.133 C 
ATOM     23  C6   11 d         -16.788 206.540 111.425  0.00  0.00     0.027 C 
ENDBRANCH   6  22
TORSDOF 1
ENDMDL
MODEL 7
REMARK VINA RESULT:      -7.7      2.520      7.042
REMARK  1 active torsions:
REMARK  status: ('A' for Active; 'I' for Inactive)
REMARK    1  A    between atoms: N2_6  and  C5_7 
ROOT
ATOM      1  C1   11 d         -12.815 207.738 113.776  0.00  0.00     0.283 A 
ATOM      2  C2   11 d         -11.512 208.030 114.172  0.00  0.00     0.166 A 
ATOM      3  C3   11 d         -11.181 208.079 115.506  0.00  0.00     0.185 A 
ATOM      4  N1   11 d         -12.105 207.847 116.479  0.00  0.00    -0.285 N 
ATOM      5  C4   11 d         -13.402 207.554 116.097  0.00  0.00     0.333 A 
ATOM      6  N2   11 d         -13.773 207.495 114.754  0.00  0.00    -0.264 N 
ATOM      7  O1   11 d         -14.265 207.336 116.987  0.00  0.00    -0.246 OA
ATOM      8  C7   11 d         -11.679 207.911 117.889  0.00  0.00     0.163 C 
ATOM      9  N3   11 d          -9.862 208.380 115.630  0.00  0.00    -0.043 NA
ATOM     10  C8   11 d          -9.418 208.508 114.358  0.00  0.00     0.712 A 
ATOM     11  N4   11 d          -8.238 208.792 113.724  0.00  0.00    -0.180 N 
ATOM     12  C9   11 d          -6.992 209.065 114.323  0.00  0.00     0.051 A 
ATOM     13  C10  11 d          -5.857 209.341 113.518  0.00  0.00     0.030 A 
ATOM     14  C11  11 d          -4.605 209.615 114.091  0.00  0.00     0.002 A 
ATOM     15  C12  11 d          -4.455 209.619 115.481  0.00  0.00     0.000 A 
ATOM     16  C13  11 d          -5.557 209.351 116.299  0.00  0.00     0.002 A 
ATOM     17  C14  11 d          -6.810 209.076 115.730  0.00  0.00     0.030 A 
ATOM     18  C15  11 d          -8.486 208.766 112.316  0.00  0.00     0.168 A 
ATOM     19  C16  11 d          -9.988 208.423 112.117  0.00  0.00     0.169 A 
ATOM     20  N5   11 d         -10.388 208.302 113.495  0.00  0.00    -0.170 N 
ATOM     21  O2   11 d         -13.081 207.701 112.548  0.00  0.00    -0.265 OA
ENDROOT
BRANCH   6  22
ATOM     22  C5   11 d         -15.203 207.170 114.465  0.00  0.00     0.133 C 
ATOM     23  C6   11 d         -15.619 205.741 114.108  0.00  0.00     0.027 C 
ENDBRANCH   6  22
TORSDOF 1
ENDMDL
MODEL 8
REMARK VINA RESULT:      -7.6      2.195      7.444
REMARK  1 active torsions:
REMARK  status: ('A' for Active; 'I' for Inactive)
REMARK    1  A    between atoms: N2_6  and  C5_7 
ROOT
ATOM      1  C1   11 d         -12.742 207.882 114.379  0.00  0.00     0.283 A 
ATOM      2  C2   11 d         -11.410 207.990 113.986  0.00  0.00     0.166 A 
ATOM      3  C3   11 d         -11.039 207.715 112.690  0.00  0.00     0.185 A 
ATOM      4  N1   11 d         -11.950 207.330 111.754  0.00  0.00    -0.285 N 
ATOM      5  C4   11 d         -13.275 207.222 112.133  0.00  0.00     0.333 A 
ATOM      6  N2   11 d         -13.688 207.494 113.438  0.00  0.00    -0.264 N 
ATOM      7  O1   11 d         -14.128 206.868 111.276  0.00  0.00    -0.246 OA
ATOM      8  C7   11 d         -11.482 207.057 110.383  0.00  0.00     0.163 C 
ATOM      9  N3   11 d          -9.698 207.892 112.560  0.00  0.00    -0.043 NA
ATOM     10  C8   11 d          -9.282 208.275 113.790  0.00  0.00     0.712 A 
ATOM     11  N4   11 d          -8.102 208.617 114.396  0.00  0.00    -0.180 N 
ATOM     12  C9   11 d          -6.824 208.668 113.807  0.00  0.00     0.051 A 
ATOM     13  C10  11 d          -5.694 209.045 114.578  0.00  0.00     0.030 A 
ATOM     14  C11  11 d          -4.411 209.104 114.013  0.00  0.00     0.002 A 
ATOM     15  C12  11 d          -4.223 208.788 112.664  0.00  0.00     0.000 A 
ATOM     16  C13  11 d          -5.318 208.413 111.879  0.00  0.00     0.002 A 
ATOM     17  C14  11 d          -6.602 208.353 112.441  0.00  0.00     0.030 A 
ATOM     18  C15  11 d          -8.391 208.921 115.764  0.00  0.00     0.168 A 
ATOM     19  C16  11 d          -9.919 208.734 115.966  0.00  0.00     0.169 A 
ATOM     20  N5   11 d         -10.288 208.334 114.634  0.00  0.00    -0.170 N 
ATOM     21  O2   11 d         -13.045 208.143 115.571  0.00  0.00    -0.265 OA
ENDROOT
BRANCH   6  22
ATOM     22  C5   11 d         -15.147 207.341 113.727  0.00  0.00     0.133 C 
ATOM     23  C6   11 d         -15.691 206.036 114.311  0.00  0.00     0.027 C 
ENDBRANCH   6  22
TORSDOF 1
ENDMDL
MODEL 9
REMARK VINA RESULT:      -7.5      2.049      3.755
REMARK  1 active torsions:
REMARK  status: ('A' for Active; 'I' for Inactive)
REMARK    1  A    between atoms: N2_6  and  C5_7 
ROOT
ATOM      1  C1   11 d          -8.018 208.574 116.767  0.00  0.00     0.283 A 
ATOM      2  C2   11 d          -9.184 208.343 116.041  0.00  0.00     0.166 A 
ATOM      3  C3   11 d          -9.273 208.722 114.722  0.00  0.00     0.185 A 
ATOM      4  N1   11 d          -8.237 209.333 114.084  0.00  0.00    -0.285 N 
ATOM      5  C4   11 d          -7.074 209.566 114.795  0.00  0.00     0.333 A 
ATOM      6  N2   11 d          -6.947 209.194 116.134  0.00  0.00    -0.264 N 
ATOM      7  O1   11 d          -6.108 210.129 114.216  0.00  0.00    -0.246 OA
ATOM      8  C7   11 d          -8.401 209.709 112.668  0.00  0.00     0.163 C 
ATOM      9  N3   11 d         -10.500 208.390 114.242  0.00  0.00    -0.043 NA
ATOM     10  C8   11 d         -11.133 207.810 115.288  0.00  0.00     0.712 A 
ATOM     11  N4   11 d         -12.355 207.247 115.543  0.00  0.00    -0.180 N 
ATOM     12  C9   11 d         -13.431 207.102 114.646  0.00  0.00     0.051 A 
ATOM     13  C10  11 d         -14.640 206.490 115.070  0.00  0.00     0.030 A 
ATOM     14  C11  11 d         -15.725 206.334 114.195  0.00  0.00     0.002 A 
ATOM     15  C12  11 d         -15.633 206.784 112.875  0.00  0.00     0.000 A 
ATOM     16  C13  11 d         -14.455 207.391 112.429  0.00  0.00     0.002 A 
ATOM     17  C14  11 d         -13.367 207.549 113.301  0.00  0.00     0.030 A 
ATOM     18  C15  11 d         -12.357 206.818 116.908  0.00  0.00     0.168 A 
ATOM     19  C16  11 d         -10.970 207.176 117.507  0.00  0.00     0.169 A 
ATOM     20  N5   11 d         -10.361 207.780 116.352  0.00  0.00    -0.170 N 
ATOM     21  O2   11 d          -7.972 208.212 117.970  0.00  0.00    -0.265 OA
ENDROOT
BRANCH   6  22
ATOM     22  C5   11 d          -5.642 209.498 116.796  0.00  0.00     0.133 C 
ATOM     23  C6   11 d          -5.528 210.652 117.795  0.00  0.00     0.027 C 
ENDBRANCH   6  22
TORSDOF 1
ENDMDL
MODEL 10
REMARK VINA RESULT:      -6.9      3.154      4.137
REMARK  1 active torsions:
REMARK  status: ('A' for Active; 'I' for Inactive)
REMARK    1  A    between atoms: N2_6  and  C5_7 
ROOT
ATOM      1  C1   11 d         -10.759 207.983 113.344  0.00  0.00     0.283 A 
ATOM      2  C2   11 d         -11.463 207.322 114.348  0.00  0.00     0.166 A 
ATOM      3  C3   11 d         -11.064 207.419 115.661  0.00  0.00     0.185 A 
ATOM      4  N1   11 d          -9.978 208.155 116.024  0.00  0.00    -0.285 N 
ATOM      5  C4   11 d          -9.274 208.818 115.035  0.00  0.00     0.333 A 
ATOM      6  N2   11 d          -9.649 208.743 113.694  0.00  0.00    -0.264 N 
ATOM      7  O1   11 d          -8.268 209.503 115.358  0.00  0.00    -0.246 OA
ATOM      8  C7   11 d          -9.612 208.219 117.451  0.00  0.00     0.163 C 
ATOM      9  N3   11 d         -11.906 206.690 116.440  0.00  0.00    -0.043 NA
ATOM     10  C8   11 d         -12.805 206.163 115.575  0.00  0.00     0.712 A 
ATOM     11  N4   11 d         -13.906 205.352 115.634  0.00  0.00    -0.180 N 
ATOM     12  C9   11 d         -14.477 204.770 116.783  0.00  0.00     0.051 A 
ATOM     13  C10  11 d         -15.629 203.948 116.672  0.00  0.00     0.030 A 
ATOM     14  C11  11 d         -16.215 203.357 117.801  0.00  0.00     0.002 A 
ATOM     15  C12  11 d         -15.668 203.572 119.070  0.00  0.00     0.000 A 
ATOM     16  C13  11 d         -14.533 204.376 119.209  0.00  0.00     0.002 A 
ATOM     17  C14  11 d         -13.944 204.969 118.082  0.00  0.00     0.030 A 
ATOM     18  C15  11 d         -14.395 205.190 114.299  0.00  0.00     0.168 A 
ATOM     19  C16  11 d         -13.465 206.008 113.364  0.00  0.00     0.169 A 
ATOM     20  N5   11 d         -12.547 206.533 114.341  0.00  0.00    -0.170 N 
ATOM     21  O2   11 d         -11.153 207.872 112.155  0.00  0.00    -0.265 OA
ENDROOT
BRANCH   6  22
ATOM     22  C5   11 d          -8.810 209.501 112.717  0.00  0.00     0.133 C 
ATOM     23  C6   11 d          -7.625 208.827 112.022  0.00  0.00     0.027 C 
ENDBRANCH   6  22
TORSDOF 1
ENDMDL
