MODEL 1
REMARK VINA RESULT:      -6.6      0.000      0.000
REMARK  2 active torsions:
REMARK  status: ('A' for Active; 'I' for Inactive)
REMARK    1  A    between atoms: C1_1  and  S1_2 
REMARK    2  A    between atoms: S1_2  and  N1_3 
ROOT
ATOM      1  S1   11 d         -12.972 207.489 113.862  0.00  0.00     0.243 S 
ATOM      2  O2   11 d         -13.752 208.731 114.300  0.00  0.00    -0.206 OA
ATOM      3  O3   11 d         -13.003 206.509 115.039  0.00  0.00    -0.206 OA
ENDROOT
BRANCH   1   4
ATOM      4  C1   11 d         -11.279 207.963 113.489  0.00  0.00     0.074 A 
ATOM      5  C6   11 d         -10.778 207.887 112.177  0.00  0.00     0.025 A 
ATOM      6  C7   11 d          -9.458 208.276 111.903  0.00  0.00     0.008 A 
ATOM      7  C8   11 d          -8.633 208.775 112.931  0.00  0.00    -0.062 A 
ATOM      8  C9   11 d          -9.127 208.810 114.249  0.00  0.00     0.008 A 
ATOM      9  C11  11 d          -7.191 209.098 112.654  0.00  0.00     0.048 C 
ATOM     10  C10  11 d         -10.447 208.420 114.523  0.00  0.00     0.025 A 
ENDBRANCH   1   4
BRANCH   1  11
ATOM     11  N1   11 d         -13.776 206.763 112.468  0.00  0.00    -0.202 NA
ATOM     12  C2   11 d         -14.925 207.606 112.027  0.00  0.00     0.134 C 
ATOM     13  C3   11 d         -15.627 206.945 110.836  0.00  0.00     0.183 C 
ATOM     14  O1   11 d         -16.060 205.597 111.170  0.00  0.00    -0.389 OA
ATOM     15  C4   11 d         -14.934 204.769 111.575  0.00  0.00     0.183 C 
ATOM     16  C5   11 d         -14.219 205.375 112.787  0.00  0.00     0.134 C 
ENDBRANCH   1  11
TORSDOF 2
ENDMDL
MODEL 2
REMARK VINA RESULT:      -6.5      2.261      6.033
REMARK  2 active torsions:
REMARK  status: ('A' for Active; 'I' for Inactive)
REMARK    1  A    between atoms: C1_1  and  S1_2 
REMARK    2  A    between atoms: S1_2  and  N1_3 
ROOT
ATOM      1  S1   11 d         -12.185 207.045 114.954  0.00  0.00     0.243 S 
ATOM      2  O2   11 d         -11.530 205.674 115.143  0.00  0.00    -0.206 OA
ATOM      3  O3   11 d         -12.527 207.569 116.352  0.00  0.00    -0.206 OA
ENDROOT
BRANCH   1   4
ATOM      4  C1   11 d         -13.682 206.848 113.978  0.00  0.00     0.074 A 
ATOM      5  C6   11 d         -14.808 206.190 114.502  0.00  0.00     0.025 A 
ATOM      6  C7   11 d         -15.972 206.061 113.730  0.00  0.00     0.008 A 
ATOM      7  C8   11 d         -16.035 206.614 112.436  0.00  0.00    -0.062 A 
ATOM      8  C9   11 d         -14.890 207.236 111.900  0.00  0.00     0.008 A 
ATOM      9  C11  11 d         -17.247 206.390 111.575  0.00  0.00     0.048 C 
ATOM     10  C10  11 d         -13.726 207.365 112.673  0.00  0.00     0.025 A 
ENDBRANCH   1   4
BRANCH   1  11
ATOM     11  N1   11 d         -11.032 208.135 114.180  0.00  0.00    -0.202 NA
ATOM     12  C2   11 d         -10.332 207.446 113.056  0.00  0.00     0.134 C 
ATOM     13  C3   11 d          -9.316 208.398 112.416  0.00  0.00     0.183 C 
ATOM     14  O1   11 d          -8.369 208.889 113.406  0.00  0.00    -0.389 OA
ATOM     15  C4   11 d          -9.051 209.583 114.488  0.00  0.00     0.183 C 
ATOM     16  C5   11 d         -10.057 208.658 115.180  0.00  0.00     0.134 C 
ENDBRANCH   1  11
TORSDOF 2
ENDMDL
MODEL 3
REMARK VINA RESULT:      -6.4      2.324      5.744
REMARK  2 active torsions:
REMARK  status: ('A' for Active; 'I' for Inactive)
REMARK    1  A    between atoms: C1_1  and  S1_2 
REMARK    2  A    between atoms: S1_2  and  N1_3 
ROOT
ATOM      1  S1   11 d         -11.690 207.212 114.713  0.00  0.00     0.243 S 
ATOM      2  O2   11 d         -11.496 205.808 115.292  0.00  0.00    -0.206 OA
ATOM      3  O3   11 d         -12.302 208.070 115.824  0.00  0.00    -0.206 OA
ENDROOT
BRANCH   1   4
ATOM      4  C1   11 d         -12.810 207.116 113.309  0.00  0.00     0.074 A 
ATOM      5  C6   11 d         -12.474 206.375 112.163  0.00  0.00     0.025 A 
ATOM      6  C7   11 d         -13.368 206.300 111.084  0.00  0.00     0.008 A 
ATOM      7  C8   11 d         -14.622 206.940 111.151  0.00  0.00    -0.062 A 
ATOM      8  C9   11 d         -14.935 207.715 112.285  0.00  0.00     0.008 A 
ATOM      9  C11  11 d         -15.536 206.940 109.958  0.00  0.00     0.048 C 
ATOM     10  C10  11 d         -14.041 207.790 113.363  0.00  0.00     0.025 A 
ENDBRANCH   1   4
BRANCH   1  11
ATOM     11  N1   11 d         -10.118 207.872 114.256  0.00  0.00    -0.202 NA
ATOM     12  C2   11 d          -9.633 208.834 115.288  0.00  0.00     0.134 C 
ATOM     13  C3   11 d          -8.282 209.417 114.860  0.00  0.00     0.183 C 
ATOM     14  O1   11 d          -8.379 210.051 113.554  0.00  0.00    -0.389 OA
ATOM     15  C4   11 d          -8.828 209.106 112.543  0.00  0.00     0.183 C 
ATOM     16  C5   11 d         -10.194 208.518 112.913  0.00  0.00     0.134 C 
ENDBRANCH   1  11
TORSDOF 2
ENDMDL
MODEL 4
REMARK VINA RESULT:      -6.3      3.683      6.712
REMARK  2 active torsions:
REMARK  status: ('A' for Active; 'I' for Inactive)
REMARK    1  A    between atoms: C1_1  and  S1_2 
REMARK    2  A    between atoms: S1_2  and  N1_3 
ROOT
ATOM      1  S1   11 d          -9.014 208.871 113.741  0.00  0.00     0.243 S 
ATOM      2  O2   11 d          -9.172 208.865 115.264  0.00  0.00    -0.206 OA
ATOM      3  O3   11 d          -9.068 210.336 113.296  0.00  0.00    -0.206 OA
ENDROOT
BRANCH   1   4
ATOM      4  C1   11 d         -10.369 207.946 113.008  0.00  0.00     0.074 A 
ATOM      5  C6   11 d         -10.573 207.938 111.617  0.00  0.00     0.025 A 
ATOM      6  C7   11 d         -11.627 207.197 111.062  0.00  0.00     0.008 A 
ATOM      7  C8   11 d         -12.472 206.430 111.889  0.00  0.00    -0.062 A 
ATOM      8  C9   11 d         -12.289 206.474 113.284  0.00  0.00     0.008 A 
ATOM      9  C11  11 d         -13.659 205.717 111.303  0.00  0.00     0.048 C 
ATOM     10  C10  11 d         -11.235 207.216 113.839  0.00  0.00     0.025 A 
ENDBRANCH   1   4
BRANCH   1  11
ATOM     11  N1   11 d          -7.443 208.183 113.320  0.00  0.00    -0.202 NA
ATOM     12  C2   11 d          -6.430 208.510 114.366  0.00  0.00     0.134 C 
ATOM     13  C3   11 d          -5.069 207.929 113.968  0.00  0.00     0.183 C 
ATOM     14  O1   11 d          -4.655 208.421 112.662  0.00  0.00    -0.389 OA
ATOM     15  C4   11 d          -5.632 208.080 111.640  0.00  0.00     0.183 C 
ATOM     16  C5   11 d          -7.005 208.667 111.979  0.00  0.00     0.134 C 
ENDBRANCH   1  11
TORSDOF 2
ENDMDL
MODEL 5
REMARK VINA RESULT:      -6.3      3.046      5.524
REMARK  2 active torsions:
REMARK  status: ('A' for Active; 'I' for Inactive)
REMARK    1  A    between atoms: C1_1  and  S1_2 
REMARK    2  A    between atoms: S1_2  and  N1_3 
ROOT
ATOM      1  S1   11 d         -12.933 206.753 115.738  0.00  0.00     0.243 S 
ATOM      2  O2   11 d         -13.707 205.435 115.833  0.00  0.00    -0.206 OA
ATOM      3  O3   11 d         -13.909 207.869 116.125  0.00  0.00    -0.206 OA
ENDROOT
BRANCH   1   4
ATOM      4  C1   11 d         -12.367 206.978 114.047  0.00  0.00     0.074 A 
ATOM      5  C6   11 d         -11.178 207.675 113.767  0.00  0.00     0.025 A 
ATOM      6  C7   11 d         -10.744 207.826 112.441  0.00  0.00     0.008 A 
ATOM      7  C8   11 d         -11.478 207.258 111.381  0.00  0.00    -0.062 A 
ATOM      8  C9   11 d         -12.689 206.598 111.664  0.00  0.00     0.008 A 
ATOM      9  C11  11 d         -11.065 207.505 109.958  0.00  0.00     0.048 C 
ATOM     10  C10  11 d         -13.123 206.446 112.990  0.00  0.00     0.025 A 
ENDBRANCH   1   4
BRANCH   1  11
ATOM     11  N1   11 d         -11.590 206.719 116.883  0.00  0.00    -0.202 NA
ATOM     12  C2   11 d         -11.964 205.954 118.108  0.00  0.00     0.134 C 
ATOM     13  C3   11 d         -10.797 205.961 119.101  0.00  0.00     0.183 C 
ATOM     14  O1   11 d         -10.402 207.322 119.430  0.00  0.00    -0.389 OA
ATOM     15  C4   11 d         -10.013 208.059 118.237  0.00  0.00     0.183 C 
ATOM     16  C5   11 d         -11.162 208.106 117.226  0.00  0.00     0.134 C 
ENDBRANCH   1  11
TORSDOF 2
ENDMDL
MODEL 6
REMARK VINA RESULT:      -6.2      3.522      5.723
REMARK  2 active torsions:
REMARK  status: ('A' for Active; 'I' for Inactive)
REMARK    1  A    between atoms: C1_1  and  S1_2 
REMARK    2  A    between atoms: S1_2  and  N1_3 
ROOT
ATOM      1  S1   11 d         -12.571 206.520 115.541  0.00  0.00     0.243 S 
ATOM      2  O2   11 d         -11.796 207.818 115.780  0.00  0.00    -0.206 OA
ATOM      3  O3   11 d         -11.536 205.393 115.463  0.00  0.00    -0.206 OA
ENDROOT
BRANCH   1   4
ATOM      4  C1   11 d         -13.468 206.652 113.989  0.00  0.00     0.074 A 
ATOM      5  C6   11 d         -14.866 206.806 113.970  0.00  0.00     0.025 A 
ATOM      6  C7   11 d         -15.546 206.923 112.749  0.00  0.00     0.008 A 
ATOM      7  C8   11 d         -14.835 206.917 111.532  0.00  0.00    -0.062 A 
ATOM      8  C9   11 d         -13.440 206.721 111.556  0.00  0.00     0.008 A 
ATOM      9  C11  11 d         -15.574 206.944 110.224  0.00  0.00     0.048 C 
ATOM     10  C10  11 d         -12.760 206.604 112.777  0.00  0.00     0.025 A 
ENDBRANCH   1   4
BRANCH   1  11
ATOM     11  N1   11 d         -13.655 206.234 116.905  0.00  0.00    -0.202 NA
ATOM     12  C2   11 d         -13.277 207.095 118.064  0.00  0.00     0.134 C 
ATOM     13  C3   11 d         -14.210 206.811 119.247  0.00  0.00     0.183 C 
ATOM     14  O1   11 d         -14.180 205.401 119.606  0.00  0.00    -0.389 OA
ATOM     15  C4   11 d         -14.573 204.565 118.482  0.00  0.00     0.183 C 
ATOM     16  C5   11 d         -13.647 204.791 117.283  0.00  0.00     0.134 C 
ENDBRANCH   1  11
TORSDOF 2
ENDMDL
MODEL 7
REMARK VINA RESULT:      -6.2      2.840      5.851
REMARK  2 active torsions:
REMARK  status: ('A' for Active; 'I' for Inactive)
REMARK    1  A    between atoms: C1_1  and  S1_2 
REMARK    2  A    between atoms: S1_2  and  N1_3 
ROOT
ATOM      1  S1   11 d         -13.637 206.567 115.534  0.00  0.00     0.243 S 
ATOM      2  O2   11 d         -13.885 205.124 115.981  0.00  0.00    -0.206 OA
ATOM      3  O3   11 d         -14.564 207.455 116.370  0.00  0.00    -0.206 OA
ENDROOT
BRANCH   1   4
ATOM      4  C1   11 d         -14.038 206.716 113.788  0.00  0.00     0.074 A 
ATOM      5  C6   11 d         -13.055 206.532 112.800  0.00  0.00     0.025 A 
ATOM      6  C7   11 d         -13.391 206.637 111.442  0.00  0.00     0.008 A 
ATOM      7  C8   11 d         -14.720 206.897 111.054  0.00  0.00    -0.062 A 
ATOM      8  C9   11 d         -15.692 207.121 112.049  0.00  0.00     0.008 A 
ATOM      9  C11  11 d         -15.058 207.106 109.605  0.00  0.00     0.048 C 
ATOM     10  C10  11 d         -15.356 207.016 113.407  0.00  0.00     0.025 A 
ENDBRANCH   1   4
BRANCH   1  11
ATOM     11  N1   11 d         -11.956 206.994 115.862  0.00  0.00    -0.202 NA
ATOM     12  C2   11 d         -11.630 206.774 117.302  0.00  0.00     0.134 C 
ATOM     13  C3   11 d         -10.177 207.177 117.572  0.00  0.00     0.183 C 
ATOM     14  O1   11 d          -9.940 208.560 117.184  0.00  0.00    -0.389 OA
ATOM     15  C4   11 d         -10.234 208.767 115.775  0.00  0.00     0.183 C 
ATOM     16  C5   11 d         -11.690 208.406 115.461  0.00  0.00     0.134 C 
ENDBRANCH   1  11
TORSDOF 2
ENDMDL
MODEL 8
REMARK VINA RESULT:      -6.1      5.827      7.860
REMARK  2 active torsions:
REMARK  status: ('A' for Active; 'I' for Inactive)
REMARK    1  A    between atoms: C1_1  and  S1_2 
REMARK    2  A    between atoms: S1_2  and  N1_3 
ROOT
ATOM      1  S1   11 d          -5.668 209.985 114.840  0.00  0.00     0.243 S 
ATOM      2  O2   11 d          -6.064 211.324 115.466  0.00  0.00    -0.206 OA
ATOM      3  O3   11 d          -4.382 210.231 114.044  0.00  0.00    -0.206 OA
ENDROOT
BRANCH   1   4
ATOM      4  C1   11 d          -6.984 209.438 113.744  0.00  0.00     0.074 A 
ATOM      5  C6   11 d          -6.695 208.841 112.505  0.00  0.00     0.025 A 
ATOM      6  C7   11 d          -7.737 208.407 111.671  0.00  0.00     0.008 A 
ATOM      7  C8   11 d          -9.079 208.538 112.079  0.00  0.00    -0.062 A 
ATOM      8  C9   11 d          -9.364 209.174 113.302  0.00  0.00     0.008 A 
ATOM      9  C11  11 d         -10.194 208.163 111.143  0.00  0.00     0.048 C 
ATOM     10  C10  11 d          -8.322 209.608 114.136  0.00  0.00     0.025 A 
ENDBRANCH   1   4
BRANCH   1  11
ATOM     11  N1   11 d          -5.353 208.815 116.124  0.00  0.00    -0.202 NA
ATOM     12  C2   11 d          -5.159 207.449 115.554  0.00  0.00     0.134 C 
ATOM     13  C3   11 d          -4.916 206.445 116.685  0.00  0.00     0.183 C 
ATOM     14  O1   11 d          -6.011 206.465 117.643  0.00  0.00    -0.389 OA
ATOM     15  C4   11 d          -6.183 207.791 118.216  0.00  0.00     0.183 C 
ATOM     16  C5   11 d          -6.460 208.827 117.123  0.00  0.00     0.134 C 
ENDBRANCH   1  11
TORSDOF 2
ENDMDL
MODEL 9
REMARK VINA RESULT:      -6.1      2.645      4.079
REMARK  2 active torsions:
REMARK  status: ('A' for Active; 'I' for Inactive)
REMARK    1  A    between atoms: C1_1  and  S1_2 
REMARK    2  A    between atoms: S1_2  and  N1_3 
ROOT
ATOM      1  S1   11 d         -13.205 207.172 114.385  0.00  0.00     0.243 S 
ATOM      2  O2   11 d         -13.683 206.039 113.473  0.00  0.00    -0.206 OA
ATOM      3  O3   11 d         -14.252 208.286 114.296  0.00  0.00    -0.206 OA
ENDROOT
BRANCH   1   4
ATOM      4  C1   11 d         -11.613 207.764 113.796  0.00  0.00     0.074 A 
ATOM      5  C6   11 d         -10.672 208.317 114.683  0.00  0.00     0.025 A 
ATOM      6  C7   11 d          -9.428 208.759 114.206  0.00  0.00     0.008 A 
ATOM      7  C8   11 d          -9.099 208.626 112.842  0.00  0.00    -0.062 A 
ATOM      8  C9   11 d         -10.061 208.110 111.953  0.00  0.00     0.008 A 
ATOM      9  C11  11 d          -7.808 209.189 112.318  0.00  0.00     0.048 C 
ATOM     10  C10  11 d         -11.304 207.668 112.430  0.00  0.00     0.025 A 
ENDBRANCH   1   4
BRANCH   1  11
ATOM     11  N1   11 d         -13.113 206.578 116.045  0.00  0.00    -0.202 NA
ATOM     12  C2   11 d         -13.965 205.365 116.217  0.00  0.00     0.134 C 
ATOM     13  C3   11 d         -13.895 204.883 117.669  0.00  0.00     0.183 C 
ATOM     14  O1   11 d         -14.292 205.940 118.588  0.00  0.00    -0.389 OA
ATOM     15  C4   11 d         -13.445 207.113 118.437  0.00  0.00     0.183 C 
ATOM     16  C5   11 d         -13.507 207.651 117.005  0.00  0.00     0.134 C 
ENDBRANCH   1  11
TORSDOF 2
ENDMDL
MODEL 10
REMARK VINA RESULT:      -6.1      3.184      6.005
REMARK  2 active torsions:
REMARK  status: ('A' for Active; 'I' for Inactive)
REMARK    1  A    between atoms: C1_1  and  S1_2 
REMARK    2  A    between atoms: S1_2  and  N1_3 
ROOT
ATOM      1  S1   11 d         -11.810 207.061 114.019  0.00  0.00     0.243 S 
ATOM      2  O2   11 d         -11.150 208.334 113.484  0.00  0.00    -0.206 OA
ATOM      3  O3   11 d         -10.903 205.892 113.624  0.00  0.00    -0.206 OA
ENDROOT
BRANCH   1   4
ATOM      4  C1   11 d         -13.429 206.879 113.260  0.00  0.00     0.074 A 
ATOM      5  C6   11 d         -13.580 206.890 111.862  0.00  0.00     0.025 A 
ATOM      6  C7   11 d         -14.851 206.730 111.288  0.00  0.00     0.008 A 
ATOM      7  C8   11 d         -15.981 206.528 112.104  0.00  0.00    -0.062 A 
ATOM      8  C9   11 d         -15.830 206.559 113.504  0.00  0.00     0.008 A 
ATOM      9  C11  11 d         -17.352 206.455 111.492  0.00  0.00     0.048 C 
ATOM     10  C10  11 d         -14.560 206.718 114.078  0.00  0.00     0.025 A 
ENDBRANCH   1   4
BRANCH   1  11
ATOM     11  N1   11 d         -11.916 207.159 115.779  0.00  0.00    -0.202 NA
ATOM     12  C2   11 d         -10.831 208.029 116.321  0.00  0.00     0.134 C 
ATOM     13  C3   11 d         -10.921 208.077 117.850  0.00  0.00     0.183 C 
ATOM     14  O1   11 d         -10.857 206.739 118.418  0.00  0.00    -0.389 OA
ATOM     15  C4   11 d         -11.930 205.900 117.907  0.00  0.00     0.183 C 
ATOM     16  C5   11 d         -11.862 205.795 116.381  0.00  0.00     0.134 C 
ENDBRANCH   1  11
TORSDOF 2
ENDMDL
