MODEL 1
REMARK VINA RESULT:      -7.7      0.000      0.000
REMARK  1 active torsions:
REMARK  status: ('A' for Active; 'I' for Inactive)
REMARK    1  A    between atoms: C3_3  and  N3_15 
ROOT
ATOM      1  C1   11 d         -14.073 207.103 112.957  0.00  0.00    -0.028 A 
ATOM      2  C2   11 d         -12.933 207.661 113.650  0.00  0.00     0.053 A 
ATOM      3  C3   11 d         -12.728 208.286 114.884  0.00  0.00     0.137 A 
ATOM      4  N1   11 d         -11.508 208.674 115.276  0.00  0.00    -0.216 NA
ATOM      5  C4   11 d         -10.479 208.482 114.436  0.00  0.00     0.125 A 
ATOM      6  N2   11 d         -10.540 207.899 113.237  0.00  0.00    -0.226 NA
ATOM      7  C5   11 d         -11.778 207.516 112.893  0.00  0.00     0.114 A 
ATOM      8  S1   11 d         -12.059 206.774 111.386  0.00  0.00    -0.073 SA
ATOM      9  C6   11 d         -13.719 206.618 111.710  0.00  0.00    -0.008 A 
ATOM     10  C7   11 d         -14.647 205.973 110.726  0.00  0.00     0.047 C 
ATOM     11  C8   11 d         -16.107 206.267 111.095  0.00  0.00     0.005 C 
ATOM     12  C9   11 d         -16.355 206.081 112.596  0.00  0.00     0.005 C 
ATOM     13  C10  11 d         -15.496 207.037 113.438  0.00  0.00     0.041 C 
ATOM     14  C11  11 d          -9.142 208.949 114.850  0.00  0.00     0.093 C 
ENDROOT
BRANCH   3  15
ATOM     15  N3   11 d         -13.818 208.543 115.791  0.00  0.00    -0.383 N 
ATOM     16  H    11 d         -14.467 209.393 115.630  0.00  0.00     0.157 HD
ATOM     17  H    11 d         -13.987 207.884 116.634  0.00  0.00     0.157 HD
ENDBRANCH   3  15
TORSDOF 1
ENDMDL
MODEL 2
REMARK VINA RESULT:      -7.6      1.891      3.074
REMARK  1 active torsions:
REMARK  status: ('A' for Active; 'I' for Inactive)
REMARK    1  A    between atoms: C3_3  and  N3_15 
ROOT
ATOM      1  C1   11 d         -13.928 206.871 111.621  0.00  0.00    -0.028 A 
ATOM      2  C2   11 d         -12.544 207.286 111.564  0.00  0.00     0.053 A 
ATOM      3  C3   11 d         -11.644 207.609 110.544  0.00  0.00     0.137 A 
ATOM      4  N1   11 d         -10.395 208.007 110.814  0.00  0.00    -0.216 NA
ATOM      5  C4   11 d         -10.007 208.055 112.098  0.00  0.00     0.125 A 
ATOM      6  N2   11 d         -10.764 207.775 113.161  0.00  0.00    -0.226 NA
ATOM      7  C5   11 d         -12.009 207.394 112.841  0.00  0.00     0.114 A 
ATOM      8  S1   11 d         -13.117 206.973 114.064  0.00  0.00    -0.073 SA
ATOM      9  C6   11 d         -14.335 206.648 112.925  0.00  0.00    -0.008 A 
ATOM     10  C7   11 d         -15.704 206.211 113.351  0.00  0.00     0.047 C 
ATOM     11  C8   11 d         -16.487 205.657 112.153  0.00  0.00     0.005 C 
ATOM     12  C9   11 d         -16.334 206.556 110.920  0.00  0.00     0.005 C 
ATOM     13  C10  11 d         -14.869 206.659 110.468  0.00  0.00     0.041 C 
ATOM     14  C11  11 d          -8.616 208.452 112.394  0.00  0.00     0.093 C 
ENDROOT
BRANCH   3  15
ATOM     15  N3   11 d         -12.017 207.529 109.154  0.00  0.00    -0.383 N 
ATOM     16  H    11 d         -12.978 207.118 108.875  0.00  0.00     0.157 HD
ATOM     17  H    11 d         -11.336 207.882 108.390  0.00  0.00     0.157 HD
ENDBRANCH   3  15
TORSDOF 1
ENDMDL
MODEL 3
REMARK VINA RESULT:      -7.6      1.910      2.992
REMARK  1 active torsions:
REMARK  status: ('A' for Active; 'I' for Inactive)
REMARK    1  A    between atoms: C3_3  and  N3_15 
ROOT
ATOM      1  C1   11 d         -12.376 206.936 111.978  0.00  0.00    -0.028 A 
ATOM      2  C2   11 d         -11.200 207.663 112.402  0.00  0.00     0.053 A 
ATOM      3  C3   11 d         -10.173 208.358 111.755  0.00  0.00     0.137 A 
ATOM      4  N1   11 d          -9.208 208.980 112.444  0.00  0.00    -0.216 NA
ATOM      5  C4   11 d          -9.225 208.892 113.783  0.00  0.00     0.125 A 
ATOM      6  N2   11 d         -10.144 208.264 114.519  0.00  0.00    -0.226 NA
ATOM      7  C5   11 d         -11.096 207.667 113.787  0.00  0.00     0.114 A 
ATOM      8  S1   11 d         -12.344 206.795 114.550  0.00  0.00    -0.073 SA
ATOM      9  C6   11 d         -13.056 206.402 113.059  0.00  0.00    -0.008 A 
ATOM     10  C7   11 d         -14.316 205.593 112.985  0.00  0.00     0.047 C 
ATOM     11  C8   11 d         -14.548 205.091 111.554  0.00  0.00     0.005 C 
ATOM     12  C9   11 d         -14.307 206.202 110.525  0.00  0.00     0.005 C 
ATOM     13  C10  11 d         -12.860 206.717 110.572  0.00  0.00     0.041 C 
ATOM     14  C11  11 d          -8.138 209.541 114.540  0.00  0.00     0.093 C 
ENDROOT
BRANCH   3  15
ATOM     15  N3   11 d         -10.104 208.438 110.318  0.00  0.00    -0.383 N 
ATOM     16  H    11 d         -10.968 208.758 109.751  0.00  0.00     0.157 HD
ATOM     17  H    11 d          -9.186 208.178 109.805  0.00  0.00     0.157 HD
ENDBRANCH   3  15
TORSDOF 1
ENDMDL
MODEL 4
REMARK VINA RESULT:      -7.4      2.265      5.693
REMARK  1 active torsions:
REMARK  status: ('A' for Active; 'I' for Inactive)
REMARK    1  A    between atoms: C3_3  and  N3_15 
ROOT
ATOM      1  C1   11 d         -10.444 208.018 112.896  0.00  0.00    -0.028 A 
ATOM      2  C2   11 d         -11.568 207.298 112.339  0.00  0.00     0.053 A 
ATOM      3  C3   11 d         -11.988 206.955 111.050  0.00  0.00     0.137 A 
ATOM      4  N1   11 d         -13.092 206.226 110.847  0.00  0.00    -0.216 NA
ATOM      5  C4   11 d         -13.817 205.857 111.915  0.00  0.00     0.125 A 
ATOM      6  N2   11 d         -13.526 206.116 113.191  0.00  0.00    -0.226 NA
ATOM      7  C5   11 d         -12.406 206.838 113.346  0.00  0.00     0.114 A 
ATOM      8  S1   11 d         -11.885 207.288 114.903  0.00  0.00    -0.073 SA
ATOM      9  C6   11 d         -10.528 208.096 114.276  0.00  0.00    -0.008 A 
ATOM     10  C7   11 d          -9.535 208.766 115.176  0.00  0.00     0.047 C 
ATOM     11  C8   11 d          -8.623 209.698 114.368  0.00  0.00     0.005 C 
ATOM     12  C9   11 d          -8.134 209.024 113.079  0.00  0.00     0.005 C 
ATOM     13  C10  11 d          -9.303 208.653 112.153  0.00  0.00     0.041 C 
ATOM     14  C11  11 d         -15.056 205.089 111.687  0.00  0.00     0.093 C 
ENDROOT
BRANCH   3  15
ATOM     15  N3   11 d         -11.255 207.370 109.881  0.00  0.00    -0.383 N 
ATOM     16  H    11 d         -11.746 207.398 108.917  0.00  0.00     0.157 HD
ATOM     17  H    11 d         -10.215 207.655 109.967  0.00  0.00     0.157 HD
ENDBRANCH   3  15
TORSDOF 1
ENDMDL
MODEL 5
REMARK VINA RESULT:      -7.3      1.479      2.559
REMARK  1 active torsions:
REMARK  status: ('A' for Active; 'I' for Inactive)
REMARK    1  A    between atoms: C3_3  and  N3_15 
ROOT
ATOM      1  C1   11 d         -13.970 206.966 112.501  0.00  0.00    -0.028 A 
ATOM      2  C2   11 d         -12.812 207.389 113.258  0.00  0.00     0.053 A 
ATOM      3  C3   11 d         -11.498 207.749 112.947  0.00  0.00     0.137 A 
ATOM      4  N1   11 d         -10.638 208.142 113.894  0.00  0.00    -0.216 NA
ATOM      5  C4   11 d         -11.056 208.149 115.170  0.00  0.00     0.125 A 
ATOM      6  N2   11 d         -12.280 207.831 115.599  0.00  0.00    -0.226 NA
ATOM      7  C5   11 d         -13.109 207.456 114.614  0.00  0.00     0.114 A 
ATOM      8  S1   11 d         -14.707 206.990 114.969  0.00  0.00    -0.073 SA
ATOM      9  C6   11 d         -15.046 206.698 113.330  0.00  0.00    -0.008 A 
ATOM     10  C7   11 d         -16.401 206.242 112.883  0.00  0.00     0.047 C 
ATOM     11  C8   11 d         -16.344 205.726 111.440  0.00  0.00     0.005 C 
ATOM     12  C9   11 d         -15.533 206.666 110.540  0.00  0.00     0.005 C 
ATOM     13  C10  11 d         -14.076 206.789 111.012  0.00  0.00     0.041 C 
ATOM     14  C11  11 d         -10.096 208.541 116.219  0.00  0.00     0.093 C 
ENDROOT
BRANCH   3  15
ATOM     15  N3   11 d         -11.005 207.714 111.593  0.00  0.00    -0.383 N 
ATOM     16  H    11 d         -10.378 208.515 111.224  0.00  0.00     0.157 HD
ATOM     17  H    11 d         -11.262 206.885 110.945  0.00  0.00     0.157 HD
ENDBRANCH   3  15
TORSDOF 1
ENDMDL
MODEL 6
REMARK VINA RESULT:      -7.3      1.841      2.174
REMARK  1 active torsions:
REMARK  status: ('A' for Active; 'I' for Inactive)
REMARK    1  A    between atoms: C3_3  and  N3_15 
ROOT
ATOM      1  C1   11 d         -12.829 206.664 111.940  0.00  0.00    -0.028 A 
ATOM      2  C2   11 d         -11.537 207.223 112.274  0.00  0.00     0.053 A 
ATOM      3  C3   11 d         -10.767 207.322 113.436  0.00  0.00     0.137 A 
ATOM      4  N1   11 d          -9.551 207.883 113.424  0.00  0.00    -0.216 NA
ATOM      5  C4   11 d          -9.096 208.388 112.266  0.00  0.00     0.125 A 
ATOM      6  N2   11 d          -9.729 208.358 111.091  0.00  0.00    -0.226 NA
ATOM      7  C5   11 d         -10.935 207.775 111.150  0.00  0.00     0.114 A 
ATOM      8  S1   11 d         -11.903 207.663 109.754  0.00  0.00    -0.073 SA
ATOM      9  C6   11 d         -13.139 206.869 110.606  0.00  0.00    -0.008 A 
ATOM     10  C7   11 d         -14.394 206.421 109.922  0.00  0.00     0.047 C 
ATOM     11  C8   11 d         -15.468 206.058 110.956  0.00  0.00     0.005 C 
ATOM     12  C9   11 d         -14.888 205.209 112.093  0.00  0.00     0.005 C 
ATOM     13  C10  11 d         -13.787 205.959 112.859  0.00  0.00     0.041 C 
ATOM     14  C11  11 d          -7.775 209.045 112.262  0.00  0.00     0.093 C 
ENDROOT
BRANCH   3  15
ATOM     15  N3   11 d         -11.243 206.826 114.703  0.00  0.00    -0.383 N 
ATOM     16  H    11 d         -11.053 207.386 115.609  0.00  0.00     0.157 HD
ATOM     17  H    11 d         -11.792 205.894 114.747  0.00  0.00     0.157 HD
ENDBRANCH   3  15
TORSDOF 1
ENDMDL
MODEL 7
REMARK VINA RESULT:      -7.0      2.014      5.115
REMARK  1 active torsions:
REMARK  status: ('A' for Active; 'I' for Inactive)
REMARK    1  A    between atoms: C3_3  and  N3_15 
ROOT
ATOM      1  C1   11 d         -10.576 207.990 113.272  0.00  0.00    -0.028 A 
ATOM      2  C2   11 d         -11.730 207.154 113.029  0.00  0.00     0.053 A 
ATOM      3  C3   11 d         -12.663 206.488 113.830  0.00  0.00     0.137 A 
ATOM      4  N1   11 d         -13.677 205.797 113.295  0.00  0.00    -0.216 NA
ATOM      5  C4   11 d         -13.761 205.725 111.958  0.00  0.00     0.125 A 
ATOM      6  N2   11 d         -12.941 206.312 111.084  0.00  0.00    -0.226 NA
ATOM      7  C5   11 d         -11.949 207.002 111.665  0.00  0.00     0.114 A 
ATOM      8  S1   11 d         -10.787 207.802 110.712  0.00  0.00    -0.073 SA
ATOM      9  C6   11 d          -9.973 208.377 112.087  0.00  0.00    -0.008 A 
ATOM     10  C7   11 d          -8.758 209.246 111.968  0.00  0.00     0.047 C 
ATOM     11  C8   11 d          -8.027 209.333 113.314  0.00  0.00     0.005 C 
ATOM     12  C9   11 d          -9.007 209.567 114.470  0.00  0.00     0.005 C 
ATOM     13  C10  11 d         -10.017 208.416 114.601  0.00  0.00     0.041 C 
ATOM     14  C11  11 d         -14.855 204.927 111.368  0.00  0.00     0.093 C 
ENDROOT
BRANCH   3  15
ATOM     15  N3   11 d         -12.577 206.513 115.269  0.00  0.00    -0.383 N 
ATOM     16  H    11 d         -11.851 207.150 115.756  0.00  0.00     0.157 HD
ATOM     17  H    11 d         -13.240 205.895 115.861  0.00  0.00     0.157 HD
ENDBRANCH   3  15
TORSDOF 1
ENDMDL
MODEL 8
REMARK VINA RESULT:      -7.0      2.033      2.565
REMARK  1 active torsions:
REMARK  status: ('A' for Active; 'I' for Inactive)
REMARK    1  A    between atoms: C3_3  and  N3_15 
ROOT
ATOM      1  C1   11 d         -13.771 206.161 113.154  0.00  0.00    -0.028 A 
ATOM      2  C2   11 d         -13.419 206.380 114.540  0.00  0.00     0.053 A 
ATOM      3  C3   11 d         -13.950 205.995 115.774  0.00  0.00     0.137 A 
ATOM      4  N1   11 d         -13.359 206.334 116.926  0.00  0.00    -0.216 NA
ATOM      5  C4   11 d         -12.253 207.093 116.874  0.00  0.00     0.125 A 
ATOM      6  N2   11 d         -11.646 207.524 115.767  0.00  0.00    -0.226 NA
ATOM      7  C5   11 d         -12.266 207.149 114.638  0.00  0.00     0.114 A 
ATOM      8  S1   11 d         -11.652 207.625 113.123  0.00  0.00    -0.073 SA
ATOM      9  C6   11 d         -12.896 206.812 112.301  0.00  0.00    -0.008 A 
ATOM     10  C7   11 d         -12.963 206.799 110.804  0.00  0.00     0.047 C 
ATOM     11  C8   11 d         -14.339 206.309 110.333  0.00  0.00     0.005 C 
ATOM     12  C9   11 d         -14.792 205.072 111.117  0.00  0.00     0.005 C 
ATOM     13  C10  11 d         -14.930 205.367 112.618  0.00  0.00     0.041 C 
ATOM     14  C11  11 d         -11.626 207.503 118.145  0.00  0.00     0.093 C 
ENDROOT
BRANCH   3  15
ATOM     15  N3   11 d         -15.159 205.215 115.866  0.00  0.00    -0.383 N 
ATOM     16  H    11 d         -15.506 204.867 116.830  0.00  0.00     0.157 HD
ATOM     17  H    11 d         -15.720 204.978 114.971  0.00  0.00     0.157 HD
ENDBRANCH   3  15
TORSDOF 1
ENDMDL
MODEL 9
REMARK VINA RESULT:      -6.9      1.599      2.430
REMARK  1 active torsions:
REMARK  status: ('A' for Active; 'I' for Inactive)
REMARK    1  A    between atoms: C3_3  and  N3_15 
ROOT
ATOM      1  C1   11 d         -12.420 207.833 114.299  0.00  0.00    -0.028 A 
ATOM      2  C2   11 d         -11.042 208.271 114.273  0.00  0.00     0.053 A 
ATOM      3  C3   11 d         -10.184 208.910 115.173  0.00  0.00     0.137 A 
ATOM      4  N1   11 d          -8.906 209.158 114.864  0.00  0.00    -0.216 NA
ATOM      5  C4   11 d          -8.468 208.811 113.643  0.00  0.00     0.125 A 
ATOM      6  N2   11 d          -9.180 208.198 112.696  0.00  0.00    -0.226 NA
ATOM      7  C5   11 d         -10.450 207.958 113.056  0.00  0.00     0.114 A 
ATOM      8  S1   11 d         -11.521 207.203 111.969  0.00  0.00    -0.073 SA
ATOM      9  C6   11 d         -12.793 207.264 113.093  0.00  0.00    -0.008 A 
ATOM     10  C7   11 d         -14.144 206.702 112.772  0.00  0.00     0.047 C 
ATOM     11  C8   11 d         -15.182 207.188 113.793  0.00  0.00     0.005 C 
ATOM     12  C9   11 d         -14.648 207.087 115.227  0.00  0.00     0.005 C 
ATOM     13  C10  11 d         -13.400 207.960 115.432  0.00  0.00     0.041 C 
ATOM     14  C11  11 d          -7.070 209.124 113.287  0.00  0.00     0.093 C 
ENDROOT
BRANCH   3  15
ATOM     15  N3   11 d         -10.634 209.331 116.476  0.00  0.00    -0.383 N 
ATOM     16  H    11 d         -10.451 208.706 117.340  0.00  0.00     0.157 HD
ATOM     17  H    11 d         -11.153 210.274 116.590  0.00  0.00     0.157 HD
ENDBRANCH   3  15
TORSDOF 1
ENDMDL
MODEL 10
REMARK VINA RESULT:      -6.8      2.488      4.110
REMARK  1 active torsions:
REMARK  status: ('A' for Active; 'I' for Inactive)
REMARK    1  A    between atoms: C3_3  and  N3_15 
ROOT
ATOM      1  C1   11 d         -11.418 207.178 113.191  0.00  0.00    -0.028 A 
ATOM      2  C2   11 d         -11.885 206.728 114.483  0.00  0.00     0.053 A 
ATOM      3  C3   11 d         -11.404 206.798 115.794  0.00  0.00     0.137 A 
ATOM      4  N1   11 d         -12.103 206.304 116.823  0.00  0.00    -0.216 NA
ATOM      5  C4   11 d         -13.273 205.699 116.564  0.00  0.00     0.125 A 
ATOM      6  N2   11 d         -13.843 205.567 115.364  0.00  0.00    -0.226 NA
ATOM      7  C5   11 d         -13.112 206.088 114.368  0.00  0.00     0.114 A 
ATOM      8  S1   11 d         -13.665 205.995 112.760  0.00  0.00    -0.073 SA
ATOM      9  C6   11 d         -12.293 206.812 112.182  0.00  0.00    -0.008 A 
ATOM     10  C7   11 d         -12.123 207.116 110.724  0.00  0.00     0.047 C 
ATOM     11  C8   11 d         -10.676 207.533 110.429  0.00  0.00     0.005 C 
ATOM     12  C9   11 d         -10.157 208.532 111.470  0.00  0.00     0.005 C 
ATOM     13  C10  11 d         -10.153 207.929 112.884  0.00  0.00     0.041 C 
ATOM     14  C11  11 d         -14.023 205.116 117.693  0.00  0.00     0.093 C 
ENDROOT
BRANCH   3  15
ATOM     15  N3   11 d         -10.133 207.405 116.101  0.00  0.00    -0.383 N 
ATOM     16  H    11 d          -9.840 208.324 115.610  0.00  0.00     0.157 HD
ATOM     17  H    11 d          -9.472 206.941 116.822  0.00  0.00     0.157 HD
ENDBRANCH   3  15
TORSDOF 1
ENDMDL
