MODEL 1
REMARK VINA RESULT:      -9.2      0.000      0.000
REMARK  5 active torsions:
REMARK  status: ('A' for Active; 'I' for Inactive)
REMARK    1  A    between atoms: C1_1  and  N1_2 
REMARK    2  A    between atoms: N2_9  and  C6_10 
REMARK    3  A    between atoms: C6_10  and  C7_11 
REMARK    4  A    between atoms: N3_19  and  C15_20 
REMARK    5  A    between atoms: C15_20  and  C16_21 
ROOT
ATOM      1  C1   11 d         -15.756 206.668 112.517  0.00  0.00     0.102 A 
ATOM      2  C2   11 d         -14.458 207.214 112.438  0.00  0.00     0.037 A 
ATOM      3  C3   11 d         -13.559 207.101 113.509  0.00  0.00     0.013 A 
ATOM      4  C4   11 d         -13.910 206.435 114.707  0.00  0.00    -0.000 A 
ATOM      5  C5   11 d         -12.900 206.359 115.874  0.00  0.00     0.421 C 
ATOM      6  N2   11 d         -13.485 205.916 117.208  0.00  0.00    -0.032 N 
ATOM      7  C13  11 d         -12.718 206.680 118.231  0.00  0.00     0.266 C 
ATOM      8  C14  11 d         -12.442 208.007 117.549  0.00  0.00     0.266 C 
ATOM      9  N3   11 d         -12.119 207.651 116.133  0.00  0.00    -0.032 N 
ATOM     10  C22  11 d         -15.217 205.890 114.779  0.00  0.00     0.013 A 
ATOM     11  C23  11 d         -16.117 206.005 113.707  0.00  0.00     0.037 A 
ATOM     12  H4   11 d         -14.505 206.251 117.309  0.00  0.00     0.283 HD
ATOM     13  H16  11 d         -12.463 208.468 115.518  0.00  0.00     0.283 HD
ENDROOT
BRANCH   6  14
ATOM     14  C6   11 d         -13.450 204.426 117.442  0.00  0.00     0.276 C 
BRANCH  14  15
ATOM     15  C7   11 d         -14.755 203.924 118.015  0.00  0.00    -0.033 A 
ATOM     16  C8   11 d         -15.053 204.108 119.381  0.00  0.00     0.009 A 
ATOM     17  C9   11 d         -16.238 203.590 119.925  0.00  0.00     0.001 A 
ATOM     18  C10  11 d         -17.121 202.862 119.117  0.00  0.00     0.000 A 
ATOM     19  C11  11 d         -16.812 202.635 117.768  0.00  0.00     0.001 A 
ATOM     20  C12  11 d         -15.627 203.150 117.222  0.00  0.00     0.009 A 
ENDBRANCH  14  15
ENDBRANCH   6  14
BRANCH   9  21
ATOM     21  C15  11 d         -10.621 207.530 115.945  0.00  0.00     0.276 C 
BRANCH  21  22
ATOM     22  C16  11 d         -10.138 208.196 114.679  0.00  0.00    -0.033 A 
ATOM     23  C17  11 d          -9.203 209.250 114.756  0.00  0.00     0.009 A 
ATOM     24  C18  11 d          -8.702 209.840 113.586  0.00  0.00     0.001 A 
ATOM     25  C19  11 d          -9.102 209.362 112.331  0.00  0.00     0.000 A 
ATOM     26  C20  11 d          -9.991 208.282 112.244  0.00  0.00     0.001 A 
ATOM     27  C21  11 d         -10.494 207.688 113.412  0.00  0.00     0.009 A 
ENDBRANCH  21  22
ENDBRANCH   9  21
BRANCH   1  28
ATOM     28  N1   11 d         -16.658 206.778 111.457  0.00  0.00    -0.116 N 
ATOM     29  O1   11 d         -16.284 206.799 110.374  0.00  0.00    -0.532 OA
ATOM     30  O2   11 d         -17.902 206.706 111.656  0.00  0.00    -0.532 OA
ENDBRANCH   1  28
TORSDOF 5
ENDMDL
MODEL 2
REMARK VINA RESULT:      -9.2      3.228      6.970
REMARK  5 active torsions:
REMARK  status: ('A' for Active; 'I' for Inactive)
REMARK    1  A    between atoms: C1_1  and  N1_2 
REMARK    2  A    between atoms: N2_9  and  C6_10 
REMARK    3  A    between atoms: C6_10  and  C7_11 
REMARK    4  A    between atoms: N3_19  and  C15_20 
REMARK    5  A    between atoms: C15_20  and  C16_21 
ROOT
ATOM      1  C1   11 d         -15.227 203.832 119.469  0.00  0.00     0.102 A 
ATOM      2  C2   11 d         -15.409 203.327 118.164  0.00  0.00     0.037 A 
ATOM      3  C3   11 d         -14.909 204.012 117.047  0.00  0.00     0.013 A 
ATOM      4  C4   11 d         -14.201 205.230 117.178  0.00  0.00    -0.000 A 
ATOM      5  C5   11 d         -13.692 205.968 115.920  0.00  0.00     0.421 C 
ATOM      6  N2   11 d         -13.240 207.403 116.149  0.00  0.00    -0.032 N 
ATOM      7  C13  11 d         -13.617 208.124 114.902  0.00  0.00     0.266 C 
ATOM      8  C14  11 d         -14.903 207.442 114.473  0.00  0.00     0.266 C 
ATOM      9  N3   11 d         -14.676 205.989 114.746  0.00  0.00    -0.032 N 
ATOM     10  C22  11 d         -14.024 205.732 118.492  0.00  0.00     0.013 A 
ATOM     11  C23  11 d         -14.526 205.046 119.610  0.00  0.00     0.037 A 
ATOM     12  H4   11 d         -13.820 207.867 116.931  0.00  0.00     0.283 HD
ATOM     13  H16  11 d         -15.634 205.566 115.005  0.00  0.00     0.283 HD
ENDROOT
BRANCH   6  14
ATOM     14  C6   11 d         -11.779 207.551 116.491  0.00  0.00     0.276 C 
BRANCH  14  15
ATOM     15  C7   11 d         -10.966 207.964 115.285  0.00  0.00    -0.033 A 
ATOM     16  C8   11 d         -11.013 207.203 114.098  0.00  0.00     0.009 A 
ATOM     17  C9   11 d         -10.214 207.553 112.999  0.00  0.00     0.001 A 
ATOM     18  C10  11 d          -9.341 208.646 113.086  0.00  0.00     0.000 A 
ATOM     19  C11  11 d          -9.253 209.380 114.277  0.00  0.00     0.001 A 
ATOM     20  C12  11 d         -10.050 209.032 115.379  0.00  0.00     0.009 A 
ENDBRANCH  14  15
ENDBRANCH   6  14
BRANCH   9  21
ATOM     21  C15  11 d         -14.183 205.286 113.498  0.00  0.00     0.276 C 
BRANCH  21  22
ATOM     22  C16  11 d         -14.588 206.000 112.231  0.00  0.00    -0.033 A 
ATOM     23  C17  11 d         -13.595 206.449 111.333  0.00  0.00     0.009 A 
ATOM     24  C18  11 d         -13.958 207.062 110.125  0.00  0.00     0.001 A 
ATOM     25  C19  11 d         -15.310 207.203 109.786  0.00  0.00     0.000 A 
ATOM     26  C20  11 d         -16.303 206.714 110.647  0.00  0.00     0.001 A 
ATOM     27  C21  11 d         -15.944 206.098 111.856  0.00  0.00     0.009 A 
ENDBRANCH  21  22
ENDBRANCH   9  21
BRANCH   1  28
ATOM     28  N1   11 d         -15.724 203.158 120.586  0.00  0.00    -0.116 N 
ATOM     29  O1   11 d         -15.569 203.582 121.639  0.00  0.00    -0.532 OA
ATOM     30  O2   11 d         -16.476 202.154 120.454  0.00  0.00    -0.532 OA
ENDBRANCH   1  28
TORSDOF 5
ENDMDL
MODEL 3
REMARK VINA RESULT:      -9.1      1.667      7.057
REMARK  5 active torsions:
REMARK  status: ('A' for Active; 'I' for Inactive)
REMARK    1  A    between atoms: C1_1  and  N1_2 
REMARK    2  A    between atoms: N2_9  and  C6_10 
REMARK    3  A    between atoms: C6_10  and  C7_11 
REMARK    4  A    between atoms: N3_19  and  C15_20 
REMARK    5  A    between atoms: C15_20  and  C16_21 
ROOT
ATOM      1  C1   11 d         -14.350 205.706 112.728  0.00  0.00     0.102 A 
ATOM      2  C2   11 d         -14.947 205.792 114.003  0.00  0.00     0.037 A 
ATOM      3  C3   11 d         -14.270 206.381 115.081  0.00  0.00     0.013 A 
ATOM      4  C4   11 d         -12.967 206.915 114.938  0.00  0.00    -0.000 A 
ATOM      5  C5   11 d         -12.244 207.528 116.157  0.00  0.00     0.421 C 
ATOM      6  N2   11 d         -10.753 207.771 115.972  0.00  0.00    -0.032 N 
ATOM      7  C13  11 d         -10.156 207.516 117.312  0.00  0.00     0.266 C 
ATOM      8  C14  11 d         -11.017 206.401 117.877  0.00  0.00     0.266 C 
ATOM      9  N3   11 d         -12.412 206.748 117.463  0.00  0.00    -0.032 N 
ATOM     10  C22  11 d         -12.373 206.823 113.653  0.00  0.00     0.013 A 
ATOM     11  C23  11 d         -13.051 206.232 112.575  0.00  0.00     0.037 A 
ATOM     12  H4   11 d         -10.322 207.025 115.323  0.00  0.00     0.283 HD
ATOM     13  H16  11 d         -12.937 205.816 117.320  0.00  0.00     0.283 HD
ENDROOT
BRANCH   6  14
ATOM     14  C6   11 d         -10.403 209.133 115.425  0.00  0.00     0.276 C 
BRANCH  14  15
ATOM     15  C7   11 d          -9.299 209.051 114.396  0.00  0.00    -0.033 A 
ATOM     16  C8   11 d          -9.575 208.603 113.087  0.00  0.00     0.009 A 
ATOM     17  C9   11 d          -8.540 208.471 112.150  0.00  0.00     0.001 A 
ATOM     18  C10  11 d          -7.219 208.759 112.518  0.00  0.00     0.000 A 
ATOM     19  C11  11 d          -6.929 209.161 113.829  0.00  0.00     0.001 A 
ATOM     20  C12  11 d          -7.962 209.292 114.770  0.00  0.00     0.009 A 
ENDBRANCH  14  15
ENDBRANCH   6  14
BRANCH   9  21
ATOM     21  C15  11 d         -13.118 207.509 118.567  0.00  0.00     0.276 C 
BRANCH  21  22
ATOM     22  C16  11 d         -14.130 206.664 119.301  0.00  0.00    -0.033 A 
ATOM     23  C17  11 d         -14.188 205.274 119.061  0.00  0.00     0.009 A 
ATOM     24  C18  11 d         -15.084 204.467 119.777  0.00  0.00     0.001 A 
ATOM     25  C19  11 d         -15.905 205.032 120.762  0.00  0.00     0.000 A 
ATOM     26  C20  11 d         -15.819 206.403 121.044  0.00  0.00     0.001 A 
ATOM     27  C21  11 d         -14.922 207.213 120.331  0.00  0.00     0.009 A 
ENDBRANCH  21  22
ENDBRANCH   9  21
BRANCH   1  28
ATOM     28  N1   11 d         -15.017 205.119 111.651  0.00  0.00    -0.116 N 
ATOM     29  O1   11 d         -14.526 204.274 111.053  0.00  0.00    -0.532 OA
ATOM     30  O2   11 d         -16.222 205.400 111.405  0.00  0.00    -0.532 OA
ENDBRANCH   1  28
TORSDOF 5
ENDMDL
MODEL 4
REMARK VINA RESULT:      -9.1      3.968      6.209
REMARK  5 active torsions:
REMARK  status: ('A' for Active; 'I' for Inactive)
REMARK    1  A    between atoms: C1_1  and  N1_2 
REMARK    2  A    between atoms: N2_9  and  C6_10 
REMARK    3  A    between atoms: C6_10  and  C7_11 
REMARK    4  A    between atoms: N3_19  and  C15_20 
REMARK    5  A    between atoms: C15_20  and  C16_21 
ROOT
ATOM      1  C1   11 d         -11.266 206.277 118.650  0.00  0.00     0.102 A 
ATOM      2  C2   11 d         -10.220 207.102 118.186  0.00  0.00     0.037 A 
ATOM      3  C3   11 d         -10.250 207.655 116.898  0.00  0.00     0.013 A 
ATOM      4  C4   11 d         -11.327 207.415 116.011  0.00  0.00    -0.000 A 
ATOM      5  C5   11 d         -11.307 208.018 114.589  0.00  0.00     0.421 C 
ATOM      6  N2   11 d         -12.334 207.440 113.626  0.00  0.00    -0.032 N 
ATOM      7  C13  11 d         -11.660 207.454 112.298  0.00  0.00     0.266 C 
ATOM      8  C14  11 d         -10.206 207.179 112.636  0.00  0.00     0.266 C 
ATOM      9  N3   11 d          -9.949 207.960 113.885  0.00  0.00    -0.032 N 
ATOM     10  C22  11 d         -12.374 206.583 116.483  0.00  0.00     0.013 A 
ATOM     11  C23  11 d         -12.342 206.029 117.773  0.00  0.00     0.037 A 
ATOM     12  H4   11 d         -12.517 206.399 113.841  0.00  0.00     0.283 HD
ATOM     13  H16  11 d          -9.215 207.409 114.453  0.00  0.00     0.283 HD
ENDROOT
BRANCH   6  14
ATOM     14  C6   11 d         -13.659 208.162 113.618  0.00  0.00     0.276 C 
BRANCH  14  15
ATOM     15  C7   11 d         -14.723 207.359 112.904  0.00  0.00    -0.033 A 
ATOM     16  C8   11 d         -14.928 207.518 111.518  0.00  0.00     0.009 A 
ATOM     17  C9   11 d         -15.954 206.816 110.867  0.00  0.00     0.001 A 
ATOM     18  C10  11 d         -16.801 205.973 111.599  0.00  0.00     0.000 A 
ATOM     19  C11  11 d         -16.634 205.843 112.985  0.00  0.00     0.001 A 
ATOM     20  C12  11 d         -15.609 206.545 113.639  0.00  0.00     0.009 A 
ENDBRANCH  14  15
ENDBRANCH   6  14
BRANCH   9  21
ATOM     21  C15  11 d          -9.353 209.312 113.551  0.00  0.00     0.276 C 
BRANCH  21  22
ATOM     22  C16  11 d          -7.851 209.340 113.707  0.00  0.00    -0.033 A 
ATOM     23  C17  11 d          -7.279 209.873 114.882  0.00  0.00     0.009 A 
ATOM     24  C18  11 d          -5.889 209.854 115.065  0.00  0.00     0.001 A 
ATOM     25  C19  11 d          -5.060 209.273 114.096  0.00  0.00     0.000 A 
ATOM     26  C20  11 d          -5.622 208.694 112.949  0.00  0.00     0.001 A 
ATOM     27  C21  11 d          -7.013 208.711 112.763  0.00  0.00     0.009 A 
ENDBRANCH  21  22
ENDBRANCH   9  21
BRANCH   1  28
ATOM     28  N1   11 d         -11.243 205.721 119.930  0.00  0.00    -0.116 N 
ATOM     29  O1   11 d         -10.261 205.343 120.382  0.00  0.00    -0.532 OA
ATOM     30  O2   11 d         -12.264 205.758 120.670  0.00  0.00    -0.532 OA
ENDBRANCH   1  28
TORSDOF 5
ENDMDL
MODEL 5
REMARK VINA RESULT:      -8.7      3.917      6.789
REMARK  5 active torsions:
REMARK  status: ('A' for Active; 'I' for Inactive)
REMARK    1  A    between atoms: C1_1  and  N1_2 
REMARK    2  A    between atoms: N2_9  and  C6_10 
REMARK    3  A    between atoms: C6_10  and  C7_11 
REMARK    4  A    between atoms: N3_19  and  C15_20 
REMARK    5  A    between atoms: C15_20  and  C16_21 
ROOT
ATOM      1  C1   11 d          -8.642 208.679 113.241  0.00  0.00     0.102 A 
ATOM      2  C2   11 d          -8.802 208.524 114.634  0.00  0.00     0.037 A 
ATOM      3  C3   11 d         -10.026 208.114 115.181  0.00  0.00     0.013 A 
ATOM      4  C4   11 d         -11.148 207.835 114.365  0.00  0.00    -0.000 A 
ATOM      5  C5   11 d         -12.488 207.414 115.010  0.00  0.00     0.421 C 
ATOM      6  N2   11 d         -13.694 207.456 114.082  0.00  0.00    -0.032 N 
ATOM      7  C13  11 d         -14.829 207.867 114.954  0.00  0.00     0.266 C 
ATOM      8  C14  11 d         -14.187 208.815 115.949  0.00  0.00     0.266 C 
ATOM      9  N3   11 d         -12.865 208.193 116.273  0.00  0.00    -0.032 N 
ATOM     10  C22  11 d         -10.980 207.994 112.966  0.00  0.00     0.013 A 
ATOM     11  C23  11 d          -9.754 208.406 112.419  0.00  0.00     0.037 A 
ATOM     12  H4   11 d         -13.592 208.247 113.357  0.00  0.00     0.283 HD
ATOM     13  H16  11 d         -12.181 209.002 116.476  0.00  0.00     0.283 HD
ENDROOT
BRANCH   6  14
ATOM     14  C6   11 d         -13.960 206.168 113.344  0.00  0.00     0.276 C 
BRANCH  14  15
ATOM     15  C7   11 d         -14.418 206.425 111.926  0.00  0.00    -0.033 A 
ATOM     16  C8   11 d         -13.475 206.625 110.896  0.00  0.00     0.009 A 
ATOM     17  C9   11 d         -13.901 206.923 109.593  0.00  0.00     0.001 A 
ATOM     18  C10  11 d         -15.268 207.050 109.313  0.00  0.00     0.000 A 
ATOM     19  C11  11 d         -16.211 206.899 110.340  0.00  0.00     0.001 A 
ATOM     20  C12  11 d         -15.788 206.603 111.646  0.00  0.00     0.009 A 
ENDBRANCH  14  15
ENDBRANCH   6  14
BRANCH   9  21
ATOM     21  C15  11 d         -12.969 207.350 117.526  0.00  0.00     0.276 C 
BRANCH  21  22
ATOM     22  C16  11 d         -11.682 207.319 118.315  0.00  0.00    -0.033 A 
ATOM     23  C17  11 d         -11.301 206.136 118.985  0.00  0.00     0.009 A 
ATOM     24  C18  11 d         -10.081 206.074 119.674  0.00  0.00     0.001 A 
ATOM     25  C19  11 d          -9.216 207.176 119.672  0.00  0.00     0.000 A 
ATOM     26  C20  11 d          -9.562 208.338 118.966  0.00  0.00     0.001 A 
ATOM     27  C21  11 d         -10.781 208.403 118.275  0.00  0.00     0.009 A 
ENDBRANCH  21  22
ENDBRANCH   9  21
BRANCH   1  28
ATOM     28  N1   11 d          -7.427 209.089 112.688  0.00  0.00    -0.116 N 
ATOM     29  O1   11 d          -7.146 208.796 111.617  0.00  0.00    -0.532 OA
ATOM     30  O2   11 d          -6.684 209.908 113.296  0.00  0.00    -0.532 OA
ENDBRANCH   1  28
TORSDOF 5
ENDMDL
MODEL 6
REMARK VINA RESULT:      -8.7      3.281      5.585
REMARK  5 active torsions:
REMARK  status: ('A' for Active; 'I' for Inactive)
REMARK    1  A    between atoms: C1_1  and  N1_2 
REMARK    2  A    between atoms: N2_9  and  C6_10 
REMARK    3  A    between atoms: C6_10  and  C7_11 
REMARK    4  A    between atoms: N3_19  and  C15_20 
REMARK    5  A    between atoms: C15_20  and  C16_21 
ROOT
ATOM      1  C1   11 d          -9.824 208.692 115.287  0.00  0.00     0.102 A 
ATOM      2  C2   11 d         -10.843 208.359 114.370  0.00  0.00     0.037 A 
ATOM      3  C3   11 d         -12.023 207.732 114.796  0.00  0.00     0.013 A 
ATOM      4  C4   11 d         -12.245 207.411 116.156  0.00  0.00    -0.000 A 
ATOM      5  C5   11 d         -13.546 206.693 116.579  0.00  0.00     0.421 C 
ATOM      6  N2   11 d         -13.538 206.113 117.986  0.00  0.00    -0.032 N 
ATOM      7  C13  11 d         -14.351 204.869 117.889  0.00  0.00     0.266 C 
ATOM      8  C14  11 d         -14.045 204.353 116.496  0.00  0.00     0.266 C 
ATOM      9  N3   11 d         -13.999 205.576 115.635  0.00  0.00    -0.032 N 
ATOM     10  C22  11 d         -11.216 207.747 117.071  0.00  0.00     0.013 A 
ATOM     11  C23  11 d         -10.034 208.374 116.644  0.00  0.00     0.037 A 
ATOM     12  H4   11 d         -12.548 205.784 118.258  0.00  0.00     0.283 HD
ATOM     13  H16  11 d         -13.281 205.382 114.854  0.00  0.00     0.283 HD
ENDROOT
BRANCH   6  14
ATOM     14  C6   11 d         -14.034 207.055 119.054  0.00  0.00     0.276 C 
BRANCH  14  15
ATOM     15  C7   11 d         -14.459 206.309 120.298  0.00  0.00    -0.033 A 
ATOM     16  C8   11 d         -15.733 206.530 120.863  0.00  0.00     0.009 A 
ATOM     17  C9   11 d         -16.104 205.882 122.051  0.00  0.00     0.001 A 
ATOM     18  C10  11 d         -15.199 205.031 122.698  0.00  0.00     0.000 A 
ATOM     19  C11  11 d         -13.915 204.840 122.169  0.00  0.00     0.001 A 
ATOM     20  C12  11 d         -13.539 205.489 120.982  0.00  0.00     0.009 A 
ENDBRANCH  14  15
ENDBRANCH   6  14
BRANCH   9  21
ATOM     21  C15  11 d         -15.343 205.811 114.979  0.00  0.00     0.276 C 
BRANCH  21  22
ATOM     22  C16  11 d         -15.245 205.927 113.476  0.00  0.00    -0.033 A 
ATOM     23  C17  11 d         -14.025 205.630 112.830  0.00  0.00     0.009 A 
ATOM     24  C18  11 d         -13.934 205.679 111.432  0.00  0.00     0.001 A 
ATOM     25  C19  11 d         -15.064 205.990 110.664  0.00  0.00     0.000 A 
ATOM     26  C20  11 d         -16.293 206.236 111.294  0.00  0.00     0.001 A 
ATOM     27  C21  11 d         -16.388 206.187 112.693  0.00  0.00     0.009 A 
ENDBRANCH  21  22
ENDBRANCH   9  21
BRANCH   1  28
ATOM     28  N1   11 d          -8.645 209.314 114.871  0.00  0.00    -0.116 N 
ATOM     29  O1   11 d          -8.662 210.089 114.028  0.00  0.00    -0.532 OA
ATOM     30  O2   11 d          -7.568 209.149 115.507  0.00  0.00    -0.532 OA
ENDBRANCH   1  28
TORSDOF 5
ENDMDL
MODEL 7
REMARK VINA RESULT:      -8.3      4.881      7.714
REMARK  5 active torsions:
REMARK  status: ('A' for Active; 'I' for Inactive)
REMARK    1  A    between atoms: C1_1  and  N1_2 
REMARK    2  A    between atoms: N2_9  and  C6_10 
REMARK    3  A    between atoms: C6_10  and  C7_11 
REMARK    4  A    between atoms: N3_19  and  C15_20 
REMARK    5  A    between atoms: C15_20  and  C16_21 
ROOT
ATOM      1  C1   11 d          -6.230 209.266 114.211  0.00  0.00     0.102 A 
ATOM      2  C2   11 d          -7.415 209.298 113.447  0.00  0.00     0.037 A 
ATOM      3  C3   11 d          -8.660 209.019 114.030  0.00  0.00     0.013 A 
ATOM      4  C4   11 d          -8.782 208.699 115.403  0.00  0.00    -0.000 A 
ATOM      5  C5   11 d         -10.169 208.369 116.000  0.00  0.00     0.421 C 
ATOM      6  N2   11 d         -10.144 207.733 117.382  0.00  0.00    -0.032 N 
ATOM      7  C13  11 d         -11.295 206.788 117.386  0.00  0.00     0.266 C 
ATOM      8  C14  11 d         -11.346 206.285 115.955  0.00  0.00     0.266 C 
ATOM      9  N3   11 d         -11.055 207.489 115.115  0.00  0.00    -0.032 N 
ATOM     10  C22  11 d          -7.586 208.668 116.164  0.00  0.00     0.013 A 
ATOM     11  C23  11 d          -6.340 208.946 115.579  0.00  0.00     0.037 A 
ATOM     12  H4   11 d          -9.269 207.114 117.503  0.00  0.00     0.283 HD
ATOM     13  H16  11 d         -10.539 207.139 114.235  0.00  0.00     0.283 HD
ENDROOT
BRANCH   6  14
ATOM     14  C6   11 d         -10.190 208.716 118.525  0.00  0.00     0.276 C 
BRANCH  14  15
ATOM     15  C7   11 d          -9.051 208.495 119.493  0.00  0.00    -0.033 A 
ATOM     16  C8   11 d          -8.618 209.539 120.337  0.00  0.00     0.009 A 
ATOM     17  C9   11 d          -7.523 209.351 121.194  0.00  0.00     0.001 A 
ATOM     18  C10  11 d          -6.834 208.131 121.195  0.00  0.00     0.000 A 
ATOM     19  C11  11 d          -7.228 207.103 120.327  0.00  0.00     0.001 A 
ATOM     20  C12  11 d          -8.322 207.288 119.468  0.00  0.00     0.009 A 
ENDBRANCH  14  15
ENDBRANCH   6  14
BRANCH   9  21
ATOM     21  C15  11 d         -12.345 208.143 114.664  0.00  0.00     0.276 C 
BRANCH  21  22
ATOM     22  C16  11 d         -12.834 207.612 113.338  0.00  0.00    -0.033 A 
ATOM     23  C17  11 d         -14.210 207.664 113.029  0.00  0.00     0.009 A 
ATOM     24  C18  11 d         -14.672 207.227 111.779  0.00  0.00     0.001 A 
ATOM     25  C19  11 d         -13.765 206.767 110.815  0.00  0.00     0.000 A 
ATOM     26  C20  11 d         -12.391 206.760 111.095  0.00  0.00     0.001 A 
ATOM     27  C21  11 d         -11.924 207.198 112.344  0.00  0.00     0.009 A 
ENDBRANCH  21  22
ENDBRANCH   9  21
BRANCH   1  28
ATOM     28  N1   11 d          -4.986 209.540 113.638  0.00  0.00    -0.116 N 
ATOM     29  O1   11 d          -4.355 210.420 114.010  0.00  0.00    -0.532 OA
ATOM     30  O2   11 d          -4.468 208.744 112.807  0.00  0.00    -0.532 OA
ENDBRANCH   1  28
TORSDOF 5
ENDMDL
MODEL 8
REMARK VINA RESULT:      -8.2      1.417      2.049
REMARK  5 active torsions:
REMARK  status: ('A' for Active; 'I' for Inactive)
REMARK    1  A    between atoms: C1_1  and  N1_2 
REMARK    2  A    between atoms: N2_9  and  C6_10 
REMARK    3  A    between atoms: C6_10  and  C7_11 
REMARK    4  A    between atoms: N3_19  and  C15_20 
REMARK    5  A    between atoms: C15_20  and  C16_21 
ROOT
ATOM      1  C1   11 d         -13.576 206.427 112.076  0.00  0.00     0.102 A 
ATOM      2  C2   11 d         -12.422 207.075 112.564  0.00  0.00     0.037 A 
ATOM      3  C3   11 d         -12.076 207.013 113.922  0.00  0.00     0.013 A 
ATOM      4  C4   11 d         -12.862 206.299 114.857  0.00  0.00    -0.000 A 
ATOM      5  C5   11 d         -12.462 206.281 116.349  0.00  0.00     0.421 C 
ATOM      6  N2   11 d         -13.534 205.768 117.301  0.00  0.00    -0.032 N 
ATOM      7  C13  11 d         -13.356 206.570 118.542  0.00  0.00     0.266 C 
ATOM      8  C14  11 d         -12.914 207.928 118.027  0.00  0.00     0.266 C 
ATOM      9  N3   11 d         -11.978 207.624 116.901  0.00  0.00    -0.032 N 
ATOM     10  C22  11 d         -14.022 205.652 114.360  0.00  0.00     0.013 A 
ATOM     11  C23  11 d         -14.368 205.715 113.000  0.00  0.00     0.037 A 
ATOM     12  H4   11 d         -14.519 206.020 116.939  0.00  0.00     0.283 HD
ATOM     13  H16  11 d         -12.081 208.424 116.184  0.00  0.00     0.283 HD
ENDROOT
BRANCH   6  14
ATOM     14  C6   11 d         -13.488 204.282 117.552  0.00  0.00     0.276 C 
BRANCH  14  15
ATOM     15  C7   11 d         -14.820 203.760 118.041  0.00  0.00    -0.033 A 
ATOM     16  C8   11 d         -15.769 203.257 117.127  0.00  0.00     0.009 A 
ATOM     17  C9   11 d         -17.028 202.828 117.575  0.00  0.00     0.001 A 
ATOM     18  C10  11 d         -17.360 202.924 118.932  0.00  0.00     0.000 A 
ATOM     19  C11  11 d         -16.440 203.465 119.842  0.00  0.00     0.001 A 
ATOM     20  C12  11 d         -15.181 203.897 119.397  0.00  0.00     0.009 A 
ENDBRANCH  14  15
ENDBRANCH   6  14
BRANCH   9  21
ATOM     21  C15  11 d         -10.544 207.625 117.390  0.00  0.00     0.276 C 
BRANCH  21  22
ATOM     22  C16  11 d          -9.610 208.352 116.452  0.00  0.00    -0.033 A 
ATOM     23  C17  11 d          -8.214 208.229 116.621  0.00  0.00     0.009 A 
ATOM     24  C18  11 d          -7.335 208.852 115.724  0.00  0.00     0.001 A 
ATOM     25  C19  11 d          -7.837 209.573 114.633  0.00  0.00     0.000 A 
ATOM     26  C20  11 d          -9.222 209.658 114.427  0.00  0.00     0.001 A 
ATOM     27  C21  11 d         -10.105 209.035 115.322  0.00  0.00     0.009 A 
ENDBRANCH  21  22
ENDBRANCH   9  21
BRANCH   1  28
ATOM     28  N1   11 d         -13.929 206.485 110.727  0.00  0.00    -0.116 N 
ATOM     29  O1   11 d         -14.916 206.033 110.363  0.00  0.00    -0.532 OA
ATOM     30  O2   11 d         -13.246 207.161 109.909  0.00  0.00    -0.532 OA
ENDBRANCH   1  28
TORSDOF 5
ENDMDL
MODEL 9
REMARK VINA RESULT:      -7.8      5.681      8.827
REMARK  5 active torsions:
REMARK  status: ('A' for Active; 'I' for Inactive)
REMARK    1  A    between atoms: C1_1  and  N1_2 
REMARK    2  A    between atoms: N2_9  and  C6_10 
REMARK    3  A    between atoms: C6_10  and  C7_11 
REMARK    4  A    between atoms: N3_19  and  C15_20 
REMARK    5  A    between atoms: C15_20  and  C16_21 
ROOT
ATOM      1  C1   11 d          -8.966 206.722 120.014  0.00  0.00     0.102 A 
ATOM      2  C2   11 d          -7.698 207.325 120.159  0.00  0.00     0.037 A 
ATOM      3  C3   11 d          -7.066 207.951 119.075  0.00  0.00     0.013 A 
ATOM      4  C4   11 d          -7.668 208.009 117.796  0.00  0.00    -0.000 A 
ATOM      5  C5   11 d          -6.924 208.682 116.621  0.00  0.00     0.421 C 
ATOM      6  N2   11 d          -7.507 208.406 115.242  0.00  0.00    -0.032 N 
ATOM      7  C13  11 d          -6.328 208.355 114.334  0.00  0.00     0.266 C 
ATOM      8  C14  11 d          -5.240 207.747 115.200  0.00  0.00     0.266 C 
ATOM      9  N3   11 d          -5.427 208.371 116.546  0.00  0.00    -0.032 N 
ATOM     10  C22  11 d          -8.941 207.400 117.657  0.00  0.00     0.013 A 
ATOM     11  C23  11 d          -9.573 206.772 118.743  0.00  0.00     0.037 A 
ATOM     12  H4   11 d          -7.940 207.419 115.201  0.00  0.00     0.283 HD
ATOM     13  H16  11 d          -5.123 207.638 117.276  0.00  0.00     0.283 HD
ENDROOT
BRANCH   6  14
ATOM     14  C6   11 d          -8.550 209.399 114.793  0.00  0.00     0.276 C 
BRANCH  14  15
ATOM     15  C7   11 d          -9.593 208.749 113.913  0.00  0.00    -0.033 A 
ATOM     16  C8   11 d         -10.682 208.061 114.487  0.00  0.00     0.009 A 
ATOM     17  C9   11 d         -11.618 207.407 113.670  0.00  0.00     0.001 A 
ATOM     18  C10  11 d         -11.459 207.412 112.279  0.00  0.00     0.000 A 
ATOM     19  C11  11 d         -10.354 208.054 111.701  0.00  0.00     0.001 A 
ATOM     20  C12  11 d          -9.415 208.707 112.515  0.00  0.00     0.009 A 
ENDBRANCH  14  15
ENDBRANCH   6  14
BRANCH   9  21
ATOM     21  C15  11 d          -4.524 209.578 116.700  0.00  0.00     0.276 C 
BRANCH  21  22
ATOM     22  C16  11 d          -4.546 210.146 118.099  0.00  0.00    -0.033 A 
ATOM     23  C17  11 d          -5.509 211.118 118.445  0.00  0.00     0.009 A 
ATOM     24  C18  11 d          -5.578 211.612 119.755  0.00  0.00     0.001 A 
ATOM     25  C19  11 d          -4.711 211.118 120.739  0.00  0.00     0.000 A 
ATOM     26  C20  11 d          -3.785 210.115 120.418  0.00  0.00     0.001 A 
ATOM     27  C21  11 d          -3.714 209.617 119.108  0.00  0.00     0.009 A 
ENDBRANCH  21  22
ENDBRANCH   9  21
BRANCH   1  28
ATOM     28  N1   11 d          -9.601 206.095 121.087  0.00  0.00    -0.116 N 
ATOM     29  O1   11 d          -9.685 206.619 122.101  0.00  0.00    -0.532 OA
ATOM     30  O2   11 d         -10.222 205.009 120.925  0.00  0.00    -0.532 OA
ENDBRANCH   1  28
TORSDOF 5
ENDMDL
MODEL 10
REMARK VINA RESULT:      -7.5      6.270      9.802
REMARK  5 active torsions:
REMARK  status: ('A' for Active; 'I' for Inactive)
REMARK    1  A    between atoms: C1_1  and  N1_2 
REMARK    2  A    between atoms: N2_9  and  C6_10 
REMARK    3  A    between atoms: C6_10  and  C7_11 
REMARK    4  A    between atoms: N3_19  and  C15_20 
REMARK    5  A    between atoms: C15_20  and  C16_21 
ROOT
ATOM      1  C1   11 d          -8.846 206.962 119.378  0.00  0.00     0.102 A 
ATOM      2  C2   11 d          -7.784 207.523 120.119  0.00  0.00     0.037 A 
ATOM      3  C3   11 d          -6.783 208.278 119.491  0.00  0.00     0.013 A 
ATOM      4  C4   11 d          -6.795 208.513 118.095  0.00  0.00    -0.000 A 
ATOM      5  C5   11 d          -5.657 209.325 117.438  0.00  0.00     0.421 C 
ATOM      6  N2   11 d          -5.596 209.242 115.919  0.00  0.00    -0.032 N 
ATOM      7  C13  11 d          -4.143 209.295 115.594  0.00  0.00     0.266 C 
ATOM      8  C14  11 d          -3.493 208.562 116.753  0.00  0.00     0.266 C 
ATOM      9  N3   11 d          -4.254 209.006 117.962  0.00  0.00    -0.032 N 
ATOM     10  C22  11 d          -7.865 207.945 117.358  0.00  0.00     0.013 A 
ATOM     11  C23  11 d          -8.866 207.188 117.987  0.00  0.00     0.037 A 
ATOM     12  H4   11 d          -5.928 208.275 115.575  0.00  0.00     0.283 HD
ATOM     13  H16  11 d          -4.253 208.178 118.654  0.00  0.00     0.283 HD
ENDROOT
BRANCH   6  14
ATOM     14  C6   11 d          -6.395 210.300 115.202  0.00  0.00     0.276 C 
BRANCH  14  15
ATOM     15  C7   11 d          -7.263 209.701 114.118  0.00  0.00    -0.033 A 
ATOM     16  C8   11 d          -8.658 209.598 114.296  0.00  0.00     0.009 A 
ATOM     17  C9   11 d          -9.455 208.989 113.316  0.00  0.00     0.001 A 
ATOM     18  C10  11 d          -8.864 208.452 112.164  0.00  0.00     0.000 A 
ATOM     19  C11  11 d          -7.472 208.509 111.999  0.00  0.00     0.001 A 
ATOM     20  C12  11 d          -6.672 209.117 112.979  0.00  0.00     0.009 A 
ENDBRANCH  14  15
ENDBRANCH   6  14
BRANCH   9  21
ATOM     21  C15  11 d          -3.552 210.169 118.633  0.00  0.00     0.276 C 
BRANCH  21  22
ATOM     22  C16  11 d          -4.257 210.629 119.886  0.00  0.00    -0.033 A 
ATOM     23  C17  11 d          -5.133 211.735 119.830  0.00  0.00     0.009 A 
ATOM     24  C18  11 d          -5.838 212.139 120.972  0.00  0.00     0.001 A 
ATOM     25  C19  11 d          -5.704 211.425 122.171  0.00  0.00     0.000 A 
ATOM     26  C20  11 d          -4.876 210.295 122.223  0.00  0.00     0.001 A 
ATOM     27  C21  11 d          -4.170 209.886 121.081  0.00  0.00     0.009 A 
ENDBRANCH  21  22
ENDBRANCH   9  21
BRANCH   1  28
ATOM     28  N1   11 d          -9.845 206.207 119.996  0.00  0.00    -0.116 N 
ATOM     29  O1   11 d         -10.948 206.381 119.740  0.00  0.00    -0.532 OA
ATOM     30  O2   11 d          -9.552 205.224 120.731  0.00  0.00    -0.532 OA
ENDBRANCH   1  28
TORSDOF 5
ENDMDL
MODEL 11
REMARK VINA RESULT:      -7.5      3.123      5.689
REMARK  5 active torsions:
REMARK  status: ('A' for Active; 'I' for Inactive)
REMARK    1  A    between atoms: C1_1  and  N1_2 
REMARK    2  A    between atoms: N2_9  and  C6_10 
REMARK    3  A    between atoms: C6_10  and  C7_11 
REMARK    4  A    between atoms: N3_19  and  C15_20 
REMARK    5  A    between atoms: C15_20  and  C16_21 
ROOT
ATOM      1  C1   11 d         -10.381 207.987 112.196  0.00  0.00     0.102 A 
ATOM      2  C2   11 d          -9.751 207.657 113.415  0.00  0.00     0.037 A 
ATOM      3  C3   11 d         -10.490 207.168 114.502  0.00  0.00     0.013 A 
ATOM      4  C4   11 d         -11.890 206.981 114.425  0.00  0.00    -0.000 A 
ATOM      5  C5   11 d         -12.671 206.468 115.656  0.00  0.00     0.421 C 
ATOM      6  N2   11 d         -14.184 206.612 115.569  0.00  0.00    -0.032 N 
ATOM      7  C13  11 d         -14.619 206.898 116.964  0.00  0.00     0.266 C 
ATOM      8  C14  11 d         -13.476 207.721 117.530  0.00  0.00     0.266 C 
ATOM      9  N3   11 d         -12.238 207.079 116.991  0.00  0.00    -0.032 N 
ATOM     10  C22  11 d         -12.516 207.316 113.198  0.00  0.00     0.013 A 
ATOM     11  C23  11 d         -11.776 207.807 112.110  0.00  0.00     0.037 A 
ATOM     12  H4   11 d         -14.453 207.490 115.002  0.00  0.00     0.283 HD
ATOM     13  H16  11 d         -11.507 207.863 116.867  0.00  0.00     0.283 HD
ENDROOT
BRANCH   6  14
ATOM     14  C6   11 d         -14.892 205.424 114.967  0.00  0.00     0.276 C 
BRANCH  14  15
ATOM     15  C7   11 d         -15.218 205.653 113.509  0.00  0.00    -0.033 A 
ATOM     16  C8   11 d         -14.575 204.896 112.506  0.00  0.00     0.009 A 
ATOM     17  C9   11 d         -14.834 205.149 111.151  0.00  0.00     0.001 A 
ATOM     18  C10  11 d         -15.713 206.176 110.784  0.00  0.00     0.000 A 
ATOM     19  C11  11 d         -16.321 206.965 111.772  0.00  0.00     0.001 A 
ATOM     20  C12  11 d         -16.063 206.715 113.129  0.00  0.00     0.009 A 
ENDBRANCH  14  15
ENDBRANCH   6  14
BRANCH   9  21
ATOM     21  C15  11 d         -11.681 206.083 117.988  0.00  0.00     0.276 C 
BRANCH  21  22
ATOM     22  C16  11 d         -10.591 206.672 118.851  0.00  0.00    -0.033 A 
ATOM     23  C17  11 d         -10.081 205.929 119.938  0.00  0.00     0.009 A 
ATOM     24  C18  11 d          -9.029 206.439 120.713  0.00  0.00     0.001 A 
ATOM     25  C19  11 d          -8.455 207.676 120.392  0.00  0.00     0.000 A 
ATOM     26  C20  11 d          -8.920 208.398 119.283  0.00  0.00     0.001 A 
ATOM     27  C21  11 d          -9.971 207.890 118.504  0.00  0.00     0.009 A 
ENDBRANCH  21  22
ENDBRANCH   9  21
BRANCH   1  28
ATOM     28  N1   11 d          -9.653 208.477 111.110  0.00  0.00    -0.116 N 
ATOM     29  O1   11 d         -10.146 208.591 110.083  0.00  0.00    -0.532 OA
ATOM     30  O2   11 d          -8.490 208.940 111.267  0.00  0.00    -0.532 OA
ENDBRANCH   1  28
TORSDOF 5
ENDMDL
MODEL 12
REMARK VINA RESULT:      -7.5      6.040      9.995
REMARK  5 active torsions:
REMARK  status: ('A' for Active; 'I' for Inactive)
REMARK    1  A    between atoms: C1_1  and  N1_2 
REMARK    2  A    between atoms: N2_9  and  C6_10 
REMARK    3  A    between atoms: C6_10  and  C7_11 
REMARK    4  A    between atoms: N3_19  and  C15_20 
REMARK    5  A    between atoms: C15_20  and  C16_21 
ROOT
ATOM      1  C1   11 d          -4.268 208.397 112.621  0.00  0.00     0.102 A 
ATOM      2  C2   11 d          -5.672 208.367 112.485  0.00  0.00     0.037 A 
ATOM      3  C3   11 d          -6.511 208.637 113.576  0.00  0.00     0.013 A 
ATOM      4  C4   11 d          -5.991 208.952 114.853  0.00  0.00    -0.000 A 
ATOM      5  C5   11 d          -6.950 209.213 116.036  0.00  0.00     0.421 C 
ATOM      6  N2   11 d          -6.296 209.220 117.411  0.00  0.00    -0.032 N 
ATOM      7  C13  11 d          -7.321 208.641 118.322  0.00  0.00     0.266 C 
ATOM      8  C14  11 d          -8.026 207.613 117.455  0.00  0.00     0.266 C 
ATOM      9  N3   11 d          -8.148 208.263 116.114  0.00  0.00    -0.032 N 
ATOM     10  C22  11 d          -4.579 208.978 114.983  0.00  0.00     0.013 A 
ATOM     11  C23  11 d          -3.739 208.707 113.891  0.00  0.00     0.037 A 
ATOM     12  H4   11 d          -5.466 208.532 117.443  0.00  0.00     0.283 HD
ATOM     13  H16  11 d          -8.095 207.475 115.378  0.00  0.00     0.283 HD
ENDROOT
BRANCH   6  14
ATOM     14  C6   11 d          -5.807 210.573 117.864  0.00  0.00     0.276 C 
BRANCH  14  15
ATOM     15  C7   11 d          -4.499 210.467 118.615  0.00  0.00    -0.033 A 
ATOM     16  C8   11 d          -4.207 211.360 119.669  0.00  0.00     0.009 A 
ATOM     17  C9   11 d          -2.969 211.299 120.326  0.00  0.00     0.001 A 
ATOM     18  C10  11 d          -2.004 210.368 119.921  0.00  0.00     0.000 A 
ATOM     19  C11  11 d          -2.268 209.507 118.845  0.00  0.00     0.001 A 
ATOM     20  C12  11 d          -3.505 209.567 118.184  0.00  0.00     0.009 A 
ENDBRANCH  14  15
ENDBRANCH   6  14
BRANCH   9  21
ATOM     21  C15  11 d          -9.497 208.937 115.972  0.00  0.00     0.276 C 
BRANCH  21  22
ATOM     22  C16  11 d         -10.317 208.365 114.841  0.00  0.00    -0.033 A 
ATOM     23  C17  11 d         -11.659 207.991 115.069  0.00  0.00     0.009 A 
ATOM     24  C18  11 d         -12.450 207.512 114.014  0.00  0.00     0.001 A 
ATOM     25  C19  11 d         -11.922 207.433 112.719  0.00  0.00     0.000 A 
ATOM     26  C20  11 d         -10.606 207.851 112.472  0.00  0.00     0.001 A 
ATOM     27  C21  11 d          -9.812 208.332 113.524  0.00  0.00     0.009 A 
ENDBRANCH  21  22
ENDBRANCH   9  21
BRANCH   1  28
ATOM     28  N1   11 d          -3.426 208.127 111.541  0.00  0.00    -0.116 N 
ATOM     29  O1   11 d          -2.288 208.128 111.675  0.00  0.00    -0.532 OA
ATOM     30  O2   11 d          -3.895 207.734 110.437  0.00  0.00    -0.532 OA
ENDBRANCH   1  28
TORSDOF 5
ENDMDL
MODEL 13
REMARK VINA RESULT:      -7.4      4.664      8.429
REMARK  5 active torsions:
REMARK  status: ('A' for Active; 'I' for Inactive)
REMARK    1  A    between atoms: C1_1  and  N1_2 
REMARK    2  A    between atoms: N2_9  and  C6_10 
REMARK    3  A    between atoms: C6_10  and  C7_11 
REMARK    4  A    between atoms: N3_19  and  C15_20 
REMARK    5  A    between atoms: C15_20  and  C16_21 
ROOT
ATOM      1  C1   11 d         -11.540 207.224 118.108  0.00  0.00     0.102 A 
ATOM      2  C2   11 d         -10.677 207.164 119.223  0.00  0.00     0.037 A 
ATOM      3  C3   11 d          -9.299 207.385 119.085  0.00  0.00     0.013 A 
ATOM      4  C4   11 d          -8.716 207.680 117.829  0.00  0.00    -0.000 A 
ATOM      5  C5   11 d          -7.190 207.886 117.715  0.00  0.00     0.421 C 
ATOM      6  N2   11 d          -6.639 207.874 116.296  0.00  0.00    -0.032 N 
ATOM      7  C13  11 d          -5.294 207.246 116.416  0.00  0.00     0.266 C 
ATOM      8  C14  11 d          -5.477 206.225 117.524  0.00  0.00     0.266 C 
ATOM      9  N3   11 d          -6.345 206.906 118.533  0.00  0.00    -0.032 N 
ATOM     10  C22  11 d          -9.589 207.736 116.713  0.00  0.00     0.013 A 
ATOM     11  C23  11 d         -10.969 207.514 116.852  0.00  0.00     0.037 A 
ATOM     12  H4   11 d          -7.209 207.206 115.670  0.00  0.00     0.283 HD
ATOM     13  H16  11 d          -6.944 206.138 118.999  0.00  0.00     0.283 HD
ENDROOT
BRANCH   6  14
ATOM     14  C6   11 d          -6.596 209.226 115.630  0.00  0.00     0.276 C 
BRANCH  14  15
ATOM     15  C7   11 d          -7.213 209.185 114.250  0.00  0.00    -0.033 A 
ATOM     16  C8   11 d          -8.515 209.683 114.035  0.00  0.00     0.009 A 
ATOM     17  C9   11 d          -9.110 209.590 112.768  0.00  0.00     0.001 A 
ATOM     18  C10  11 d          -8.422 208.976 111.713  0.00  0.00     0.000 A 
ATOM     19  C11  11 d          -7.145 208.437 111.928  0.00  0.00     0.001 A 
ATOM     20  C12  11 d          -6.549 208.526 113.196  0.00  0.00     0.009 A 
ENDBRANCH  14  15
ENDBRANCH   6  14
BRANCH   9  21
ATOM     21  C15  11 d          -5.499 207.549 119.612  0.00  0.00     0.276 C 
BRANCH  21  22
ATOM     22  C16  11 d          -5.788 209.022 119.777  0.00  0.00    -0.033 A 
ATOM     23  C17  11 d          -6.675 209.452 120.787  0.00  0.00     0.009 A 
ATOM     24  C18  11 d          -6.910 210.820 120.990  0.00  0.00     0.001 A 
ATOM     25  C19  11 d          -6.238 211.771 120.210  0.00  0.00     0.000 A 
ATOM     26  C20  11 d          -5.316 211.355 119.239  0.00  0.00     0.001 A 
ATOM     27  C21  11 d          -5.078 209.988 119.034  0.00  0.00     0.009 A 
ENDBRANCH  21  22
ENDBRANCH   9  21
BRANCH   1  28
ATOM     28  N1   11 d         -12.912 207.003 118.237  0.00  0.00    -0.116 N 
ATOM     29  O1   11 d         -13.471 206.351 117.479  0.00  0.00    -0.532 OA
ATOM     30  O2   11 d         -13.536 207.390 119.263  0.00  0.00    -0.532 OA
ENDBRANCH   1  28
TORSDOF 5
ENDMDL
MODEL 14
REMARK VINA RESULT:      -7.3      3.505      6.081
REMARK  5 active torsions:
REMARK  status: ('A' for Active; 'I' for Inactive)
REMARK    1  A    between atoms: C1_1  and  N1_2 
REMARK    2  A    between atoms: N2_9  and  C6_10 
REMARK    3  A    between atoms: C6_10  and  C7_11 
REMARK    4  A    between atoms: N3_19  and  C15_20 
REMARK    5  A    between atoms: C15_20  and  C16_21 
ROOT
ATOM      1  C1   11 d         -13.610 205.717 119.835  0.00  0.00     0.102 A 
ATOM      2  C2   11 d         -12.770 206.795 119.484  0.00  0.00     0.037 A 
ATOM      3  C3   11 d         -12.558 207.140 118.142  0.00  0.00     0.013 A 
ATOM      4  C4   11 d         -13.175 206.430 117.085  0.00  0.00    -0.000 A 
ATOM      5  C5   11 d         -12.891 206.824 115.618  0.00  0.00     0.421 C 
ATOM      6  N2   11 d         -13.339 205.808 114.577  0.00  0.00    -0.032 N 
ATOM      7  C13  11 d         -12.318 205.897 113.496  0.00  0.00     0.266 C 
ATOM      8  C14  11 d         -11.033 206.195 114.246  0.00  0.00     0.266 C 
ATOM      9  N3   11 d         -11.429 207.162 115.316  0.00  0.00    -0.032 N 
ATOM     10  C22  11 d         -14.017 205.347 117.445  0.00  0.00     0.013 A 
ATOM     11  C23  11 d         -14.228 205.001 118.789  0.00  0.00     0.037 A 
ATOM     12  H4   11 d         -13.258 204.804 114.962  0.00  0.00     0.283 HD
ATOM     13  H16  11 d         -10.782 206.978 116.159  0.00  0.00     0.283 HD
ENDROOT
BRANCH   6  14
ATOM     14  C6   11 d         -14.746 206.010 114.071  0.00  0.00     0.276 C 
BRANCH  14  15
ATOM     15  C7   11 d         -14.766 206.293 112.586  0.00  0.00    -0.033 A 
ATOM     16  C8   11 d         -15.160 207.559 112.106  0.00  0.00     0.009 A 
ATOM     17  C9   11 d         -15.235 207.803 110.726  0.00  0.00     0.001 A 
ATOM     18  C10  11 d         -14.945 206.778 109.816  0.00  0.00     0.000 A 
ATOM     19  C11  11 d         -14.596 205.503 110.283  0.00  0.00     0.001 A 
ATOM     20  C12  11 d         -14.522 205.255 111.663  0.00  0.00     0.009 A 
ENDBRANCH  14  15
ENDBRANCH   6  14
BRANCH   9  21
ATOM     21  C15  11 d         -11.193 208.586 114.856  0.00  0.00     0.276 C 
BRANCH  21  22
ATOM     22  C16  11 d          -9.847 208.769 114.197  0.00  0.00    -0.033 A 
ATOM     23  C17  11 d          -8.707 209.018 114.992  0.00  0.00     0.009 A 
ATOM     24  C18  11 d          -7.441 209.133 114.400  0.00  0.00     0.001 A 
ATOM     25  C19  11 d          -7.295 208.968 113.016  0.00  0.00     0.000 A 
ATOM     26  C20  11 d          -8.414 208.669 112.224  0.00  0.00     0.001 A 
ATOM     27  C21  11 d          -9.682 208.552 112.814  0.00  0.00     0.009 A 
ENDBRANCH  21  22
ENDBRANCH   9  21
BRANCH   1  28
ATOM     28  N1   11 d         -13.825 205.366 121.168  0.00  0.00    -0.116 N 
ATOM     29  O1   11 d         -13.636 206.122 122.008  0.00  0.00    -0.532 OA
ATOM     30  O2   11 d         -14.369 204.267 121.468  0.00  0.00    -0.532 OA
ENDBRANCH   1  28
TORSDOF 5
ENDMDL
MODEL 15
REMARK VINA RESULT:      -7.2      4.484      6.421
REMARK  5 active torsions:
REMARK  status: ('A' for Active; 'I' for Inactive)
REMARK    1  A    between atoms: C1_1  and  N1_2 
REMARK    2  A    between atoms: N2_9  and  C6_10 
REMARK    3  A    between atoms: C6_10  and  C7_11 
REMARK    4  A    between atoms: N3_19  and  C15_20 
REMARK    5  A    between atoms: C15_20  and  C16_21 
ROOT
ATOM      1  C1   11 d          -8.171 206.627 119.564  0.00  0.00     0.102 A 
ATOM      2  C2   11 d          -8.383 207.311 118.348  0.00  0.00     0.037 A 
ATOM      3  C3   11 d          -9.658 207.377 117.768  0.00  0.00     0.013 A 
ATOM      4  C4   11 d         -10.783 206.768 118.374  0.00  0.00    -0.000 A 
ATOM      5  C5   11 d         -12.165 206.839 117.686  0.00  0.00     0.421 C 
ATOM      6  N2   11 d         -13.216 205.892 118.247  0.00  0.00    -0.032 N 
ATOM      7  C13  11 d         -14.033 205.490 117.068  0.00  0.00     0.266 C 
ATOM      8  C14  11 d         -13.024 205.451 115.934  0.00  0.00     0.266 C 
ATOM      9  N3   11 d         -12.139 206.634 116.169  0.00  0.00    -0.032 N 
ATOM     10  C22  11 d         -10.562 206.082 119.595  0.00  0.00     0.013 A 
ATOM     11  C23  11 d          -9.285 206.015 120.175  0.00  0.00     0.037 A 
ATOM     12  H4   11 d         -12.761 204.980 118.600  0.00  0.00     0.283 HD
ATOM     13  H16  11 d         -11.158 206.367 115.807  0.00  0.00     0.283 HD
ENDROOT
BRANCH   6  14
ATOM     14  C6   11 d         -14.048 206.471 119.364  0.00  0.00     0.276 C 
BRANCH  14  15
ATOM     15  C7   11 d         -14.337 205.440 120.431  0.00  0.00    -0.033 A 
ATOM     16  C8   11 d         -13.416 205.217 121.477  0.00  0.00     0.009 A 
ATOM     17  C9   11 d         -13.658 204.219 122.433  0.00  0.00     0.001 A 
ATOM     18  C10  11 d         -14.804 203.419 122.339  0.00  0.00     0.000 A 
ATOM     19  C11  11 d         -15.702 203.603 121.278  0.00  0.00     0.001 A 
ATOM     20  C12  11 d         -15.462 204.598 120.318  0.00  0.00     0.009 A 
ENDBRANCH  14  15
ENDBRANCH   6  14
BRANCH   9  21
ATOM     21  C15  11 d         -12.620 207.823 115.364  0.00  0.00     0.276 C 
BRANCH  21  22
ATOM     22  C16  11 d         -12.746 207.515 113.891  0.00  0.00    -0.033 A 
ATOM     23  C17  11 d         -11.605 207.123 113.158  0.00  0.00     0.009 A 
ATOM     24  C18  11 d         -11.718 206.778 111.803  0.00  0.00     0.001 A 
ATOM     25  C19  11 d         -12.971 206.789 111.176  0.00  0.00     0.000 A 
ATOM     26  C20  11 d         -14.118 207.128 111.910  0.00  0.00     0.001 A 
ATOM     27  C21  11 d         -14.009 207.472 113.266  0.00  0.00     0.009 A 
ENDBRANCH  21  22
ENDBRANCH   9  21
BRANCH   1  28
ATOM     28  N1   11 d          -6.905 206.555 120.147  0.00  0.00    -0.116 N 
ATOM     29  O1   11 d          -6.700 205.822 121.004  0.00  0.00    -0.532 OA
ATOM     30  O2   11 d          -5.928 207.180 119.652  0.00  0.00    -0.532 OA
ENDBRANCH   1  28
TORSDOF 5
ENDMDL
MODEL 16
REMARK VINA RESULT:      -7.2      2.384      3.603
REMARK  5 active torsions:
REMARK  status: ('A' for Active; 'I' for Inactive)
REMARK    1  A    between atoms: C1_1  and  N1_2 
REMARK    2  A    between atoms: N2_9  and  C6_10 
REMARK    3  A    between atoms: C6_10  and  C7_11 
REMARK    4  A    between atoms: N3_19  and  C15_20 
REMARK    5  A    between atoms: C15_20  and  C16_21 
ROOT
ATOM      1  C1   11 d         -11.431 207.495 111.449  0.00  0.00     0.102 A 
ATOM      2  C2   11 d         -10.221 208.031 111.938  0.00  0.00     0.037 A 
ATOM      3  C3   11 d          -9.903 207.976 113.303  0.00  0.00     0.013 A 
ATOM      4  C4   11 d         -10.775 207.380 114.245  0.00  0.00    -0.000 A 
ATOM      5  C5   11 d         -10.402 207.367 115.744  0.00  0.00     0.421 C 
ATOM      6  N2   11 d         -11.536 207.001 116.691  0.00  0.00    -0.032 N 
ATOM      7  C13  11 d         -11.290 207.819 117.911  0.00  0.00     0.266 C 
ATOM      8  C14  11 d         -10.699 209.105 117.363  0.00  0.00     0.266 C 
ATOM      9  N3   11 d          -9.784 208.668 116.264  0.00  0.00    -0.032 N 
ATOM     10  C22  11 d         -11.990 206.844 113.747  0.00  0.00     0.013 A 
ATOM     11  C23  11 d         -12.308 206.901 112.380  0.00  0.00     0.037 A 
ATOM     12  H4   11 d         -12.482 207.345 116.305  0.00  0.00     0.283 HD
ATOM     13  H16  11 d          -9.791 209.451 115.522  0.00  0.00     0.283 HD
ENDROOT
BRANCH   6  14
ATOM     14  C6   11 d         -11.653 205.527 116.988  0.00  0.00     0.276 C 
BRANCH  14  15
ATOM     15  C7   11 d         -13.077 205.043 116.840  0.00  0.00    -0.033 A 
ATOM     16  C8   11 d         -13.531 203.925 117.572  0.00  0.00     0.009 A 
ATOM     17  C9   11 d         -14.835 203.440 117.390  0.00  0.00     0.001 A 
ATOM     18  C10  11 d         -15.686 204.048 116.457  0.00  0.00     0.000 A 
ATOM     19  C11  11 d         -15.229 205.130 115.692  0.00  0.00     0.001 A 
ATOM     20  C12  11 d         -13.924 205.617 115.870  0.00  0.00     0.009 A 
ENDBRANCH  14  15
ENDBRANCH   6  14
BRANCH   9  21
ATOM     21  C15  11 d          -8.366 208.531 116.778  0.00  0.00     0.276 C 
BRANCH  21  22
ATOM     22  C16  11 d          -7.332 208.765 115.702  0.00  0.00    -0.033 A 
ATOM     23  C17  11 d          -6.222 207.900 115.599  0.00  0.00     0.009 A 
ATOM     24  C18  11 d          -5.284 208.070 114.570  0.00  0.00     0.001 A 
ATOM     25  C19  11 d          -5.462 209.082 113.617  0.00  0.00     0.000 A 
ATOM     26  C20  11 d          -6.589 209.914 113.681  0.00  0.00     0.001 A 
ATOM     27  C21  11 d          -7.531 209.745 114.708  0.00  0.00     0.009 A 
ENDBRANCH  21  22
ENDBRANCH   9  21
BRANCH   1  28
ATOM     28  N1   11 d         -11.755 207.548 110.093  0.00  0.00    -0.116 N 
ATOM     29  O1   11 d         -12.802 207.254 109.732  0.00  0.00    -0.532 OA
ATOM     30  O2   11 d         -10.959 208.057 109.256  0.00  0.00    -0.532 OA
ENDBRANCH   1  28
TORSDOF 5
ENDMDL
MODEL 17
REMARK VINA RESULT:      -7.1      4.335      5.867
REMARK  5 active torsions:
REMARK  status: ('A' for Active; 'I' for Inactive)
REMARK    1  A    between atoms: C1_1  and  N1_2 
REMARK    2  A    between atoms: N2_9  and  C6_10 
REMARK    3  A    between atoms: C6_10  and  C7_11 
REMARK    4  A    between atoms: N3_19  and  C15_20 
REMARK    5  A    between atoms: C15_20  and  C16_21 
ROOT
ATOM      1  C1   11 d         -11.633 208.033 115.872  0.00  0.00     0.102 A 
ATOM      2  C2   11 d         -10.401 208.622 115.516  0.00  0.00     0.037 A 
ATOM      3  C3   11 d          -9.286 208.537 116.363  0.00  0.00     0.013 A 
ATOM      4  C4   11 d          -9.345 207.857 117.603  0.00  0.00    -0.000 A 
ATOM      5  C5   11 d          -8.103 207.813 118.520  0.00  0.00     0.421 C 
ATOM      6  N2   11 d          -8.366 207.348 119.945  0.00  0.00    -0.032 N 
ATOM      7  C13  11 d          -7.419 208.135 120.783  0.00  0.00     0.266 C 
ATOM      8  C14  11 d          -7.340 209.471 120.069  0.00  0.00     0.266 C 
ATOM      9  N3   11 d          -7.325 209.128 118.613  0.00  0.00    -0.032 N 
ATOM     10  C22  11 d         -10.587 207.270 117.955  0.00  0.00     0.013 A 
ATOM     11  C23  11 d         -11.703 207.357 117.107  0.00  0.00     0.037 A 
ATOM     12  H4   11 d          -9.349 207.650 120.270  0.00  0.00     0.283 HD
ATOM     13  H16  11 d          -7.820 209.935 118.096  0.00  0.00     0.283 HD
ENDROOT
BRANCH   6  14
ATOM     14  C6   11 d          -8.234 205.860 120.153  0.00  0.00     0.276 C 
BRANCH  14  15
ATOM     15  C7   11 d          -9.075 205.385 121.316  0.00  0.00    -0.033 A 
ATOM     16  C8   11 d          -8.461 204.929 122.502  0.00  0.00     0.009 A 
ATOM     17  C9   11 d          -9.240 204.434 123.558  0.00  0.00     0.001 A 
ATOM     18  C10  11 d         -10.634 204.364 123.430  0.00  0.00     0.000 A 
ATOM     19  C11  11 d         -11.250 204.773 122.238  0.00  0.00     0.001 A 
ATOM     20  C12  11 d         -10.473 205.267 121.179  0.00  0.00     0.009 A 
ENDBRANCH  14  15
ENDBRANCH   6  14
BRANCH   9  21
ATOM     21  C15  11 d          -5.901 209.056 118.101  0.00  0.00     0.276 C 
BRANCH  21  22
ATOM     22  C16  11 d          -5.824 209.069 116.593  0.00  0.00    -0.033 A 
ATOM     23  C17  11 d          -5.898 210.296 115.899  0.00  0.00     0.009 A 
ATOM     24  C18  11 d          -5.770 210.329 114.503  0.00  0.00     0.001 A 
ATOM     25  C19  11 d          -5.535 209.146 113.790  0.00  0.00     0.000 A 
ATOM     26  C20  11 d          -5.409 207.929 114.475  0.00  0.00     0.001 A 
ATOM     27  C21  11 d          -5.535 207.892 115.872  0.00  0.00     0.009 A 
ENDBRANCH  21  22
ENDBRANCH   9  21
BRANCH   1  28
ATOM     28  N1   11 d         -12.748 208.116 115.036  0.00  0.00    -0.116 N 
ATOM     29  O1   11 d         -13.773 208.403 115.459  0.00  0.00    -0.532 OA
ATOM     30  O2   11 d         -12.625 208.022 113.784  0.00  0.00    -0.532 OA
ENDBRANCH   1  28
TORSDOF 5
ENDMDL
MODEL 18
REMARK VINA RESULT:      -7.1      2.486      3.889
REMARK  5 active torsions:
REMARK  status: ('A' for Active; 'I' for Inactive)
REMARK    1  A    between atoms: C1_1  and  N1_2 
REMARK    2  A    between atoms: N2_9  and  C6_10 
REMARK    3  A    between atoms: C6_10  and  C7_11 
REMARK    4  A    between atoms: N3_19  and  C15_20 
REMARK    5  A    between atoms: C15_20  and  C16_21 
ROOT
ATOM      1  C1   11 d         -13.864 206.926 111.244  0.00  0.00     0.102 A 
ATOM      2  C2   11 d         -12.564 207.122 110.733  0.00  0.00     0.037 A 
ATOM      3  C3   11 d         -11.469 207.301 111.590  0.00  0.00     0.013 A 
ATOM      4  C4   11 d         -11.617 207.288 112.998  0.00  0.00    -0.000 A 
ATOM      5  C5   11 d         -10.389 207.518 113.907  0.00  0.00     0.421 C 
ATOM      6  N2   11 d         -10.709 207.805 115.367  0.00  0.00    -0.032 N 
ATOM      7  C13  11 d          -9.658 208.764 115.805  0.00  0.00     0.266 C 
ATOM      8  C14  11 d          -9.397 209.596 114.563  0.00  0.00     0.266 C 
ATOM      9  N3   11 d          -9.435 208.617 113.432  0.00  0.00    -0.032 N 
ATOM     10  C22  11 d         -12.927 207.091 113.504  0.00  0.00     0.013 A 
ATOM     11  C23  11 d         -14.023 206.914 112.644  0.00  0.00     0.037 A 
ATOM     12  H4   11 d         -11.639 208.343 115.456  0.00  0.00     0.283 HD
ATOM     13  H16  11 d          -9.815 209.147 112.572  0.00  0.00     0.283 HD
ENDROOT
BRANCH   6  14
ATOM     14  C6   11 d         -10.785 206.580 116.243  0.00  0.00     0.276 C 
BRANCH  14  15
ATOM     15  C7   11 d         -11.891 206.698 117.267  0.00  0.00    -0.033 A 
ATOM     16  C8   11 d         -11.888 205.883 118.419  0.00  0.00     0.009 A 
ATOM     17  C9   11 d         -12.945 205.951 119.339  0.00  0.00     0.001 A 
ATOM     18  C10  11 d         -14.026 206.811 119.103  0.00  0.00     0.000 A 
ATOM     19  C11  11 d         -14.060 207.591 117.939  0.00  0.00     0.001 A 
ATOM     20  C12  11 d         -13.005 207.524 117.015  0.00  0.00     0.009 A 
ENDBRANCH  14  15
ENDBRANCH   6  14
BRANCH   9  21
ATOM     21  C15  11 d          -8.038 208.139 113.098  0.00  0.00     0.276 C 
BRANCH  21  22
ATOM     22  C16  11 d          -6.990 208.716 114.019  0.00  0.00    -0.033 A 
ATOM     23  C17  11 d          -6.256 207.860 114.869  0.00  0.00     0.009 A 
ATOM     24  C18  11 d          -5.240 208.374 115.687  0.00  0.00     0.001 A 
ATOM     25  C19  11 d          -4.924 209.738 115.643  0.00  0.00     0.000 A 
ATOM     26  C20  11 d          -5.612 210.588 114.765  0.00  0.00     0.001 A 
ATOM     27  C21  11 d          -6.628 210.077 113.942  0.00  0.00     0.009 A 
ENDBRANCH  21  22
ENDBRANCH   9  21
BRANCH   1  28
ATOM     28  N1   11 d         -14.960 206.750 110.397  0.00  0.00    -0.116 N 
ATOM     29  O1   11 d         -15.880 206.164 110.749  0.00  0.00    -0.532 OA
ATOM     30  O2   11 d         -15.026 207.352 109.290  0.00  0.00    -0.532 OA
ENDBRANCH   1  28
TORSDOF 5
ENDMDL
MODEL 19
REMARK VINA RESULT:      -6.8      2.052      2.970
REMARK  5 active torsions:
REMARK  status: ('A' for Active; 'I' for Inactive)
REMARK    1  A    between atoms: C1_1  and  N1_2 
REMARK    2  A    between atoms: N2_9  and  C6_10 
REMARK    3  A    between atoms: C6_10  and  C7_11 
REMARK    4  A    between atoms: N3_19  and  C15_20 
REMARK    5  A    between atoms: C15_20  and  C16_21 
ROOT
ATOM      1  C1   11 d         -12.966 206.485 112.227  0.00  0.00     0.102 A 
ATOM      2  C2   11 d         -11.611 206.794 112.471  0.00  0.00     0.037 A 
ATOM      3  C3   11 d         -11.113 206.883 113.779  0.00  0.00     0.013 A 
ATOM      4  C4   11 d         -11.941 206.664 114.906  0.00  0.00    -0.000 A 
ATOM      5  C5   11 d         -11.359 206.802 116.330  0.00  0.00     0.421 C 
ATOM      6  N2   11 d         -12.391 206.866 117.447  0.00  0.00    -0.032 N 
ATOM      7  C13  11 d         -11.800 207.787 118.458  0.00  0.00     0.266 C 
ATOM      8  C14  11 d         -11.040 208.795 117.617  0.00  0.00     0.266 C 
ATOM      9  N3   11 d         -10.411 207.988 116.526  0.00  0.00    -0.032 N 
ATOM     10  C22  11 d         -13.301 206.355 114.653  0.00  0.00     0.013 A 
ATOM     11  C23  11 d         -13.800 206.268 113.343  0.00  0.00     0.037 A 
ATOM     12  H4   11 d         -13.291 207.356 117.110  0.00  0.00     0.283 HD
ATOM     13  H16  11 d         -10.363 208.623 115.655  0.00  0.00     0.283 HD
ENDROOT
BRANCH   6  14
ATOM     14  C6   11 d         -12.771 205.526 118.027  0.00  0.00     0.276 C 
BRANCH  14  15
ATOM     15  C7   11 d         -13.928 205.647 118.992  0.00  0.00    -0.033 A 
ATOM     16  C8   11 d         -14.282 206.903 119.529  0.00  0.00     0.009 A 
ATOM     17  C9   11 d         -15.318 207.005 120.470  0.00  0.00     0.001 A 
ATOM     18  C10  11 d         -15.991 205.854 120.901  0.00  0.00     0.000 A 
ATOM     19  C11  11 d         -15.616 204.596 120.406  0.00  0.00     0.001 A 
ATOM     20  C12  11 d         -14.578 204.490 119.467  0.00  0.00     0.009 A 
ENDBRANCH  14  15
ENDBRANCH   6  14
BRANCH   9  21
ATOM     21  C15  11 d          -8.993 207.607 116.898  0.00  0.00     0.276 C 
BRANCH  21  22
ATOM     22  C16  11 d          -7.962 208.494 116.243  0.00  0.00    -0.033 A 
ATOM     23  C17  11 d          -8.257 209.120 115.013  0.00  0.00     0.009 A 
ATOM     24  C18  11 d          -7.332 209.992 114.421  0.00  0.00     0.001 A 
ATOM     25  C19  11 d          -6.120 210.274 115.066  0.00  0.00     0.000 A 
ATOM     26  C20  11 d          -5.839 209.697 116.313  0.00  0.00     0.001 A 
ATOM     27  C21  11 d          -6.764 208.826 116.909  0.00  0.00     0.009 A 
ENDBRANCH  21  22
ENDBRANCH   9  21
BRANCH   1  28
ATOM     28  N1   11 d         -13.471 206.397 110.928  0.00  0.00    -0.116 N 
ATOM     29  O1   11 d         -14.391 205.754 110.704  0.00  0.00    -0.532 OA
ATOM     30  O2   11 d         -13.019 207.132 110.008  0.00  0.00    -0.532 OA
ENDBRANCH   1  28
TORSDOF 5
ENDMDL
MODEL 20
REMARK VINA RESULT:      -6.8      6.521      9.924
REMARK  5 active torsions:
REMARK  status: ('A' for Active; 'I' for Inactive)
REMARK    1  A    between atoms: C1_1  and  N1_2 
REMARK    2  A    between atoms: N2_9  and  C6_10 
REMARK    3  A    between atoms: C6_10  and  C7_11 
REMARK    4  A    between atoms: N3_19  and  C15_20 
REMARK    5  A    between atoms: C15_20  and  C16_21 
ROOT
ATOM      1  C1   11 d          -3.606 207.611 115.039  0.00  0.00     0.102 A 
ATOM      2  C2   11 d          -4.842 207.735 114.369  0.00  0.00     0.037 A 
ATOM      3  C3   11 d          -6.003 208.116 115.057  0.00  0.00     0.013 A 
ATOM      4  C4   11 d          -5.987 208.395 116.444  0.00  0.00    -0.000 A 
ATOM      5  C5   11 d          -7.294 208.783 117.170  0.00  0.00     0.421 C 
ATOM      6  N2   11 d          -7.228 208.742 118.690  0.00  0.00    -0.032 N 
ATOM      7  C13  11 d          -8.583 208.297 119.118  0.00  0.00     0.266 C 
ATOM      8  C14  11 d          -9.005 207.338 118.020  0.00  0.00     0.266 C 
ATOM      9  N3   11 d          -8.525 207.973 116.753  0.00  0.00    -0.032 N 
ATOM     10  C22  11 d          -4.742 208.266 117.111  0.00  0.00     0.013 A 
ATOM     11  C23  11 d          -3.580 207.883 116.421  0.00  0.00     0.037 A 
ATOM     12  H4   11 d          -6.556 207.967 119.023  0.00  0.00     0.283 HD
ATOM     13  H16  11 d          -8.279 207.171 116.075  0.00  0.00     0.283 HD
ENDROOT
BRANCH   6  14
ATOM     14  C6   11 d          -6.808 210.041 119.333  0.00  0.00     0.276 C 
BRANCH  14  15
ATOM     15  C7   11 d          -5.371 209.990 119.799  0.00  0.00    -0.033 A 
ATOM     16  C8   11 d          -4.436 210.940 119.335  0.00  0.00     0.009 A 
ATOM     17  C9   11 d          -3.090 210.857 119.721  0.00  0.00     0.001 A 
ATOM     18  C10  11 d          -2.660 209.812 120.549  0.00  0.00     0.000 A 
ATOM     19  C11  11 d          -3.573 208.837 120.978  0.00  0.00     0.001 A 
ATOM     20  C12  11 d          -4.920 208.916 120.592  0.00  0.00     0.009 A 
ENDBRANCH  14  15
ENDBRANCH   6  14
BRANCH   9  21
ATOM     21  C15  11 d          -9.632 208.789 116.118  0.00  0.00     0.276 C 
BRANCH  21  22
ATOM     22  C16  11 d          -9.591 208.751 114.609  0.00  0.00    -0.033 A 
ATOM     23  C17  11 d         -10.446 207.874 113.908  0.00  0.00     0.009 A 
ATOM     24  C18  11 d         -10.460 207.868 112.506  0.00  0.00     0.001 A 
ATOM     25  C19  11 d          -9.648 208.758 111.791  0.00  0.00     0.000 A 
ATOM     26  C20  11 d          -8.833 209.669 112.478  0.00  0.00     0.001 A 
ATOM     27  C21  11 d          -8.817 209.679 113.882  0.00  0.00     0.009 A 
ENDBRANCH  21  22
ENDBRANCH   9  21
BRANCH   1  28
ATOM     28  N1   11 d          -2.446 207.230 114.362  0.00  0.00    -0.116 N 
ATOM     29  O1   11 d          -1.734 206.457 114.817  0.00  0.00    -0.532 OA
ATOM     30  O2   11 d          -2.233 207.612 113.178  0.00  0.00    -0.532 OA
ENDBRANCH   1  28
TORSDOF 5
ENDMDL
