MODEL 1
REMARK VINA RESULT:      -7.1      0.000      0.000
REMARK  7 active torsions:
REMARK  status: ('A' for Active; 'I' for Inactive)
REMARK    1  A    between atoms: C1_1  and  O2_3 
REMARK    2  A    between atoms: C1_1  and  C4_6 
REMARK    3  A    between atoms: O2_3  and  C2_4 
REMARK    4  A    between atoms: C4_6  and  N1_7 
REMARK    5  A    between atoms: C4_6  and  C7_11 
REMARK       I    between atoms: N1_7  and  C5_8 
REMARK    6  A    between atoms: C7_11  and  C8_12 
REMARK    7  A    between atoms: C11_15  and  O4_18 
ROOT
ATOM      1  C4   11 d           7.366  45.619  51.426  0.00  0.00     0.188 C 
ENDROOT
BRANCH   1   2
ATOM      2  C1   11 d           7.426  44.554  50.338  0.00  0.00     0.282 C 
ATOM      3  O1   11 d           7.518  44.896  49.131  0.00  0.00    -0.263 OA
BRANCH   2   4
ATOM      4  O2   11 d           7.153  43.192  50.632  0.00  0.00    -0.320 OA
BRANCH   4   5
ATOM      5  C2   11 d           5.972  42.774  49.904  0.00  0.00     0.174 C 
ATOM      6  C3   11 d           4.928  42.274  50.888  0.00  0.00     0.034 C 
ENDBRANCH   4   5
ENDBRANCH   2   4
ENDBRANCH   1   2
BRANCH   1   7
ATOM      7  N1   11 d           6.714  45.110  52.681  0.00  0.00    -0.347 N 
ATOM      8  C5   11 d           5.338  45.348  52.959  0.00  0.00     0.214 C 
ATOM      9  O3   11 d           4.618  46.004  52.129  0.00  0.00    -0.274 OA
ATOM     10  C6   11 d           4.712  44.848  54.224  0.00  0.00     0.117 C 
ATOM     11  H7   11 d           7.304  44.557  53.391  0.00  0.00     0.163 HD
ENDBRANCH   1   7
BRANCH   1  12
ATOM     12  C7   11 d           8.736  46.212  51.822  0.00  0.00     0.074 C 
BRANCH  12  13
ATOM     13  C8   11 d           8.758  46.992  53.118  0.00  0.00    -0.056 A 
ATOM     14  C9   11 d           9.620  46.606  54.165  0.00  0.00     0.010 A 
ATOM     15  C10  11 d           9.626  47.314  55.378  0.00  0.00     0.037 A 
ATOM     16  C11  11 d           8.762  48.401  55.563  0.00  0.00     0.065 A 
ATOM     17  C12  11 d           7.923  48.810  54.517  0.00  0.00     0.037 A 
ATOM     18  C13  11 d           7.904  48.097  53.307  0.00  0.00     0.010 A 
BRANCH  16  19
ATOM     19  O4   11 d           8.827  49.161  56.752  0.00  0.00    -0.361 OA
ATOM     20  H17  11 d           9.637  49.792  56.621  0.00  0.00     0.217 HD
ENDBRANCH  16  19
ENDBRANCH  12  13
ENDBRANCH   1  12
TORSDOF 7
ENDMDL
MODEL 2
REMARK VINA RESULT:      -6.9      2.200      5.972
REMARK  7 active torsions:
REMARK  status: ('A' for Active; 'I' for Inactive)
REMARK    1  A    between atoms: C1_1  and  O2_3 
REMARK    2  A    between atoms: C1_1  and  C4_6 
REMARK    3  A    between atoms: O2_3  and  C2_4 
REMARK    4  A    between atoms: C4_6  and  N1_7 
REMARK    5  A    between atoms: C4_6  and  C7_11 
REMARK       I    between atoms: N1_7  and  C5_8 
REMARK    6  A    between atoms: C7_11  and  C8_12 
REMARK    7  A    between atoms: C11_15  and  O4_18 
ROOT
ATOM      1  C4   11 d           7.376  45.773  52.395  0.00  0.00     0.188 C 
ENDROOT
BRANCH   1   2
ATOM      2  C1   11 d           8.806  46.298  52.387  0.00  0.00     0.282 C 
ATOM      3  O1   11 d           9.717  45.629  51.833  0.00  0.00    -0.263 OA
BRANCH   2   4
ATOM      4  O2   11 d           9.180  47.413  53.183  0.00  0.00    -0.320 OA
BRANCH   4   5
ATOM      5  C2   11 d           9.721  46.939  54.442  0.00  0.00     0.174 C 
ATOM      6  C3   11 d           9.202  47.813  55.571  0.00  0.00     0.034 C 
ENDBRANCH   4   5
ENDBRANCH   2   4
ENDBRANCH   1   2
BRANCH   1   7
ATOM      7  N1   11 d           6.405  46.784  52.936  0.00  0.00    -0.347 N 
ATOM      8  C5   11 d           5.861  46.672  54.247  0.00  0.00     0.214 C 
ATOM      9  O3   11 d           6.200  45.696  55.003  0.00  0.00    -0.274 OA
ATOM     10  C6   11 d           4.880  47.679  54.760  0.00  0.00     0.117 C 
ATOM     11  H7   11 d           6.107  47.610  52.315  0.00  0.00     0.163 HD
ENDBRANCH   1   7
BRANCH   1  12
ATOM     12  C7   11 d           6.851  45.316  51.016  0.00  0.00     0.074 C 
BRANCH  12  13
ATOM     13  C8   11 d           5.959  44.095  51.031  0.00  0.00    -0.056 A 
ATOM     14  C9   11 d           6.290  42.962  50.258  0.00  0.00     0.010 A 
ATOM     15  C10  11 d           5.452  41.836  50.251  0.00  0.00     0.037 A 
ATOM     16  C11  11 d           4.268  41.835  51.001  0.00  0.00     0.065 A 
ATOM     17  C12  11 d           3.946  42.945  51.795  0.00  0.00     0.037 A 
ATOM     18  C13  11 d           4.775  44.078  51.795  0.00  0.00     0.010 A 
BRANCH  16  19
ATOM     19  O4   11 d           3.468  40.672  51.057  0.00  0.00    -0.361 OA
ATOM     20  H17  11 d           4.106  39.925  51.385  0.00  0.00     0.217 HD
ENDBRANCH  16  19
ENDBRANCH  12  13
ENDBRANCH   1  12
TORSDOF 7
ENDMDL
MODEL 3
REMARK VINA RESULT:      -6.7      1.408      2.143
REMARK  7 active torsions:
REMARK  status: ('A' for Active; 'I' for Inactive)
REMARK    1  A    between atoms: C1_1  and  O2_3 
REMARK    2  A    between atoms: C1_1  and  C4_6 
REMARK    3  A    between atoms: O2_3  and  C2_4 
REMARK    4  A    between atoms: C4_6  and  N1_7 
REMARK    5  A    between atoms: C4_6  and  C7_11 
REMARK       I    between atoms: N1_7  and  C5_8 
REMARK    6  A    between atoms: C7_11  and  C8_12 
REMARK    7  A    between atoms: C11_15  and  O4_18 
ROOT
ATOM      1  C4   11 d           6.255  45.943  52.497  0.00  0.00     0.188 C 
ENDROOT
BRANCH   1   2
ATOM      2  C1   11 d           5.985  44.995  51.336  0.00  0.00     0.282 C 
ATOM      3  O1   11 d           5.269  43.975  51.511  0.00  0.00    -0.263 OA
BRANCH   2   4
ATOM      4  O2   11 d           6.704  45.110  50.116  0.00  0.00    -0.320 OA
BRANCH   4   5
ATOM      5  C2   11 d           7.342  43.843  49.818  0.00  0.00     0.174 C 
ATOM      6  C3   11 d           8.646  43.744  50.591  0.00  0.00     0.034 C 
ENDBRANCH   4   5
ENDBRANCH   2   4
ENDBRANCH   1   2
BRANCH   1   7
ATOM      7  N1   11 d           6.251  45.232  53.821  0.00  0.00    -0.347 N 
ATOM      8  C5   11 d           5.137  45.302  54.705  0.00  0.00     0.214 C 
ATOM      9  O3   11 d           4.098  45.976  54.379  0.00  0.00    -0.274 OA
ATOM     10  C6   11 d           5.160  44.602  56.028  0.00  0.00     0.117 C 
ATOM     11  H7   11 d           7.115  44.661  54.112  0.00  0.00     0.163 HD
ENDBRANCH   1   7
BRANCH   1  12
ATOM     12  C7   11 d           7.583  46.726  52.394  0.00  0.00     0.074 C 
BRANCH  12  13
ATOM     13  C8   11 d           8.153  47.217  53.705  0.00  0.00    -0.056 A 
ATOM     14  C9   11 d           7.446  48.159  54.481  0.00  0.00     0.010 A 
ATOM     15  C10  11 d           7.984  48.635  55.687  0.00  0.00     0.037 A 
ATOM     16  C11  11 d           9.239  48.189  56.123  0.00  0.00     0.065 A 
ATOM     17  C12  11 d           9.936  47.230  55.373  0.00  0.00     0.037 A 
ATOM     18  C13  11 d           9.408  46.761  54.160  0.00  0.00     0.010 A 
BRANCH  16  19
ATOM     19  O4   11 d           9.742  48.606  57.375  0.00  0.00    -0.361 OA
ATOM     20  H17  11 d          10.731  48.852  57.197  0.00  0.00     0.217 HD
ENDBRANCH  16  19
ENDBRANCH  12  13
ENDBRANCH   1  12
TORSDOF 7
ENDMDL
MODEL 4
REMARK VINA RESULT:      -6.7      1.627      3.689
REMARK  7 active torsions:
REMARK  status: ('A' for Active; 'I' for Inactive)
REMARK    1  A    between atoms: C1_1  and  O2_3 
REMARK    2  A    between atoms: C1_1  and  C4_6 
REMARK    3  A    between atoms: O2_3  and  C2_4 
REMARK    4  A    between atoms: C4_6  and  N1_7 
REMARK    5  A    between atoms: C4_6  and  C7_11 
REMARK       I    between atoms: N1_7  and  C5_8 
REMARK    6  A    between atoms: C7_11  and  C8_12 
REMARK    7  A    between atoms: C11_15  and  O4_18 
ROOT
ATOM      1  C4   11 d           6.223  45.236  52.498  0.00  0.00     0.188 C 
ENDROOT
BRANCH   1   2
ATOM      2  C1   11 d           4.907  44.876  53.178  0.00  0.00     0.282 C 
ATOM      3  O1   11 d           4.235  43.897  52.764  0.00  0.00    -0.263 OA
BRANCH   2   4
ATOM      4  O2   11 d           4.309  45.753  54.121  0.00  0.00    -0.320 OA
BRANCH   4   5
ATOM      5  C2   11 d           3.950  45.002  55.308  0.00  0.00     0.174 C 
ATOM      6  C3   11 d           5.160  44.900  56.221  0.00  0.00     0.034 C 
ENDBRANCH   4   5
ENDBRANCH   2   4
ENDBRANCH   1   2
BRANCH   1   7
ATOM      7  N1   11 d           6.237  44.843  51.048  0.00  0.00    -0.347 N 
ATOM      8  C5   11 d           7.445  44.499  50.378  0.00  0.00     0.214 C 
ATOM      9  O3   11 d           8.559  44.513  51.010  0.00  0.00    -0.274 OA
ATOM     10  C6   11 d           7.441  44.128  48.928  0.00  0.00     0.117 C 
ATOM     11  H7   11 d           5.312  44.826  50.500  0.00  0.00     0.163 HD
ENDBRANCH   1   7
BRANCH   1  12
ATOM     12  C7   11 d           6.600  46.732  52.577  0.00  0.00     0.074 C 
BRANCH  12  13
ATOM     13  C8   11 d           7.490  47.119  53.737  0.00  0.00    -0.056 A 
ATOM     14  C9   11 d           6.976  47.885  54.804  0.00  0.00     0.010 A 
ATOM     15  C10  11 d           7.806  48.265  55.870  0.00  0.00     0.037 A 
ATOM     16  C11  11 d           9.159  47.901  55.875  0.00  0.00     0.065 A 
ATOM     17  C12  11 d           9.671  47.114  54.833  0.00  0.00     0.037 A 
ATOM     18  C13  11 d           8.848  46.742  53.758  0.00  0.00     0.010 A 
BRANCH  16  19
ATOM     19  O4   11 d           9.971  48.214  56.986  0.00  0.00    -0.361 OA
ATOM     20  H17  11 d           9.491  49.002  57.455  0.00  0.00     0.217 HD
ENDBRANCH  16  19
ENDBRANCH  12  13
ENDBRANCH   1  12
TORSDOF 7
ENDMDL
MODEL 5
REMARK VINA RESULT:      -6.6      2.078      5.658
REMARK  7 active torsions:
REMARK  status: ('A' for Active; 'I' for Inactive)
REMARK    1  A    between atoms: C1_1  and  O2_3 
REMARK    2  A    between atoms: C1_1  and  C4_6 
REMARK    3  A    between atoms: O2_3  and  C2_4 
REMARK    4  A    between atoms: C4_6  and  N1_7 
REMARK    5  A    between atoms: C4_6  and  C7_11 
REMARK       I    between atoms: N1_7  and  C5_8 
REMARK    6  A    between atoms: C7_11  and  C8_12 
REMARK    7  A    between atoms: C11_15  and  O4_18 
ROOT
ATOM      1  C4   11 d           5.429  46.442  54.589  0.00  0.00     0.188 C 
ENDROOT
BRANCH   1   2
ATOM      2  C1   11 d           6.235  47.575  55.212  0.00  0.00     0.282 C 
ATOM      3  O1   11 d           5.899  48.042  56.331  0.00  0.00    -0.263 OA
BRANCH   2   4
ATOM      4  O2   11 d           7.220  48.269  54.461  0.00  0.00    -0.320 OA
BRANCH   4   5
ATOM      5  C2   11 d           8.389  48.484  55.292  0.00  0.00     0.174 C 
ATOM      6  C3   11 d           9.355  47.325  55.106  0.00  0.00     0.034 C 
ENDBRANCH   4   5
ENDBRANCH   2   4
ENDBRANCH   1   2
BRANCH   1   7
ATOM      7  N1   11 d           4.080  46.286  55.232  0.00  0.00    -0.347 N 
ATOM      8  C5   11 d           3.378  45.048  55.207  0.00  0.00     0.214 C 
ATOM      9  O3   11 d           3.894  44.026  54.634  0.00  0.00    -0.274 OA
ATOM     10  C6   11 d           2.026  44.918  55.837  0.00  0.00     0.117 C 
ATOM     11  H7   11 d           3.630  47.133  55.718  0.00  0.00     0.163 HD
ENDBRANCH   1   7
BRANCH   1  12
ATOM     12  C7   11 d           5.206  46.573  53.066  0.00  0.00     0.074 C 
BRANCH  12  13
ATOM     13  C8   11 d           6.127  45.744  52.199  0.00  0.00    -0.056 A 
ATOM     14  C9   11 d           5.628  44.630  51.493  0.00  0.00     0.010 A 
ATOM     15  C10  11 d           6.486  43.845  50.706  0.00  0.00     0.037 A 
ATOM     16  C11  11 d           7.851  44.154  50.628  0.00  0.00     0.065 A 
ATOM     17  C12  11 d           8.349  45.277  51.303  0.00  0.00     0.037 A 
ATOM     18  C13  11 d           7.498  46.057  52.102  0.00  0.00     0.010 A 
BRANCH  16  19
ATOM     19  O4   11 d           8.695  43.413  49.773  0.00  0.00    -0.361 OA
ATOM     20  H17  11 d           8.497  43.774  48.823  0.00  0.00     0.217 HD
ENDBRANCH  16  19
ENDBRANCH  12  13
ENDBRANCH   1  12
TORSDOF 7
ENDMDL
MODEL 6
REMARK VINA RESULT:      -6.3      2.815      5.066
REMARK  7 active torsions:
REMARK  status: ('A' for Active; 'I' for Inactive)
REMARK    1  A    between atoms: C1_1  and  O2_3 
REMARK    2  A    between atoms: C1_1  and  C4_6 
REMARK    3  A    between atoms: O2_3  and  C2_4 
REMARK    4  A    between atoms: C4_6  and  N1_7 
REMARK    5  A    between atoms: C4_6  and  C7_11 
REMARK       I    between atoms: N1_7  and  C5_8 
REMARK    6  A    between atoms: C7_11  and  C8_12 
REMARK    7  A    between atoms: C11_15  and  O4_18 
ROOT
ATOM      1  C4   11 d           4.101  43.570  52.366  0.00  0.00     0.188 C 
ENDROOT
BRANCH   1   2
ATOM      2  C1   11 d           3.291  43.849  53.626  0.00  0.00     0.282 C 
ATOM      3  O1   11 d           2.443  43.009  54.025  0.00  0.00    -0.263 OA
BRANCH   2   4
ATOM      4  O2   11 d           3.307  45.131  54.237  0.00  0.00    -0.320 OA
BRANCH   4   5
ATOM      5  C2   11 d           3.621  44.984  55.644  0.00  0.00     0.174 C 
ATOM      6  C3   11 d           5.090  44.630  55.796  0.00  0.00     0.034 C 
ENDBRANCH   4   5
ENDBRANCH   2   4
ENDBRANCH   1   2
BRANCH   1   7
ATOM      7  N1   11 d           3.353  42.706  51.391  0.00  0.00    -0.347 N 
ATOM      8  C5   11 d           3.993  41.648  50.685  0.00  0.00     0.214 C 
ATOM      9  O3   11 d           5.235  41.404  50.878  0.00  0.00    -0.274 OA
ATOM     10  C6   11 d           3.235  40.810  49.704  0.00  0.00     0.117 C 
ATOM     11  H7   11 d           2.309  42.896  51.216  0.00  0.00     0.163 HD
ENDBRANCH   1   7
BRANCH   1  12
ATOM     12  C7   11 d           4.565  44.833  51.607  0.00  0.00     0.074 C 
BRANCH  12  13
ATOM     13  C8   11 d           6.047  45.124  51.671  0.00  0.00    -0.056 A 
ATOM     14  C9   11 d           6.942  44.454  50.810  0.00  0.00     0.010 A 
ATOM     15  C10  11 d           8.321  44.705  50.883  0.00  0.00     0.037 A 
ATOM     16  C11  11 d           8.823  45.613  51.825  0.00  0.00     0.065 A 
ATOM     17  C12  11 d           7.939  46.306  52.664  0.00  0.00     0.037 A 
ATOM     18  C13  11 d           6.560  46.049  52.604  0.00  0.00     0.010 A 
BRANCH  16  19
ATOM     19  O4   11 d          10.200  45.925  51.842  0.00  0.00    -0.361 OA
ATOM     20  H17  11 d          10.267  46.813  52.370  0.00  0.00     0.217 HD
ENDBRANCH  16  19
ENDBRANCH  12  13
ENDBRANCH   1  12
TORSDOF 7
ENDMDL
MODEL 7
REMARK VINA RESULT:      -6.3      2.404      5.047
REMARK  7 active torsions:
REMARK  status: ('A' for Active; 'I' for Inactive)
REMARK    1  A    between atoms: C1_1  and  O2_3 
REMARK    2  A    between atoms: C1_1  and  C4_6 
REMARK    3  A    between atoms: O2_3  and  C2_4 
REMARK    4  A    between atoms: C4_6  and  N1_7 
REMARK    5  A    between atoms: C4_6  and  C7_11 
REMARK       I    between atoms: N1_7  and  C5_8 
REMARK    6  A    between atoms: C7_11  and  C8_12 
REMARK    7  A    between atoms: C11_15  and  O4_18 
ROOT
ATOM      1  C4   11 d           7.311  46.589  52.607  0.00  0.00     0.188 C 
ENDROOT
BRANCH   1   2
ATOM      2  C1   11 d           8.170  47.817  52.881  0.00  0.00     0.282 C 
ATOM      3  O1   11 d           8.152  48.786  52.080  0.00  0.00    -0.263 OA
BRANCH   2   4
ATOM      4  O2   11 d           9.161  47.802  53.898  0.00  0.00    -0.320 OA
BRANCH   4   5
ATOM      5  C2   11 d           8.638  48.452  55.083  0.00  0.00     0.174 C 
ATOM      6  C3   11 d           9.417  47.980  56.299  0.00  0.00     0.034 C 
ENDBRANCH   4   5
ENDBRANCH   2   4
ENDBRANCH   1   2
BRANCH   1   7
ATOM      7  N1   11 d           7.824  45.785  51.447  0.00  0.00    -0.347 N 
ATOM      8  C5   11 d           6.981  44.899  50.719  0.00  0.00     0.214 C 
ATOM      9  O3   11 d           5.748  44.774  51.040  0.00  0.00    -0.274 OA
ATOM     10  C6   11 d           7.516  44.093  49.576  0.00  0.00     0.117 C 
ATOM     11  H7   11 d           8.857  45.876  51.161  0.00  0.00     0.163 HD
ENDBRANCH   1   7
BRANCH   1  12
ATOM     12  C7   11 d           7.160  45.628  53.807  0.00  0.00     0.074 C 
BRANCH  12  13
ATOM     13  C8   11 d           5.921  45.827  54.650  0.00  0.00    -0.056 A 
ATOM     14  C9   11 d           5.448  44.787  55.478  0.00  0.00     0.010 A 
ATOM     15  C10  11 d           4.285  44.961  56.244  0.00  0.00     0.037 A 
ATOM     16  C11  11 d           3.572  46.166  56.179  0.00  0.00     0.065 A 
ATOM     17  C12  11 d           4.050  47.216  55.381  0.00  0.00     0.037 A 
ATOM     18  C13  11 d           5.206  47.042  54.604  0.00  0.00     0.010 A 
BRANCH  16  19
ATOM     19  O4   11 d           2.449  46.369  57.010  0.00  0.00    -0.361 OA
ATOM     20  H17  11 d           2.833  46.759  57.889  0.00  0.00     0.217 HD
ENDBRANCH  16  19
ENDBRANCH  12  13
ENDBRANCH   1  12
TORSDOF 7
ENDMDL
MODEL 8
REMARK VINA RESULT:      -6.1      2.706      3.965
REMARK  7 active torsions:
REMARK  status: ('A' for Active; 'I' for Inactive)
REMARK    1  A    between atoms: C1_1  and  O2_3 
REMARK    2  A    between atoms: C1_1  and  C4_6 
REMARK    3  A    between atoms: O2_3  and  C2_4 
REMARK    4  A    between atoms: C4_6  and  N1_7 
REMARK    5  A    between atoms: C4_6  and  C7_11 
REMARK       I    between atoms: N1_7  and  C5_8 
REMARK    6  A    between atoms: C7_11  and  C8_12 
REMARK    7  A    between atoms: C11_15  and  O4_18 
ROOT
ATOM      1  C4   11 d           3.540  44.702  52.863  0.00  0.00     0.188 C 
ENDROOT
BRANCH   1   2
ATOM      2  C1   11 d           3.260  43.459  52.028  0.00  0.00     0.282 C 
ATOM      3  O1   11 d           2.212  43.390  51.337  0.00  0.00    -0.263 OA
BRANCH   2   4
ATOM      4  O2   11 d           4.041  42.283  52.185  0.00  0.00    -0.320 OA
BRANCH   4   5
ATOM      5  C2   11 d           3.950  41.486  50.977  0.00  0.00     0.174 C 
ATOM      6  C3   11 d           5.275  41.549  50.236  0.00  0.00     0.034 C 
ENDBRANCH   4   5
ENDBRANCH   2   4
ENDBRANCH   1   2
BRANCH   1   7
ATOM      7  N1   11 d           4.399  44.401  54.058  0.00  0.00    -0.347 N 
ATOM      8  C5   11 d           4.181  45.032  55.315  0.00  0.00     0.214 C 
ATOM      9  O3   11 d           3.229  45.876  55.455  0.00  0.00    -0.274 OA
ATOM     10  C6   11 d           5.060  44.732  56.489  0.00  0.00     0.117 C 
ATOM     11  H7   11 d           5.205  43.694  53.960  0.00  0.00     0.163 HD
ENDBRANCH   1   7
BRANCH   1  12
ATOM     12  C7   11 d           4.209  45.859  52.089  0.00  0.00     0.074 C 
BRANCH  12  13
ATOM     13  C8   11 d           5.719  45.807  52.015  0.00  0.00    -0.056 A 
ATOM     14  C9   11 d           6.357  44.927  51.116  0.00  0.00     0.010 A 
ATOM     15  C10  11 d           7.758  44.859  51.062  0.00  0.00     0.037 A 
ATOM     16  C11  11 d           8.536  45.655  51.914  0.00  0.00     0.065 A 
ATOM     17  C12  11 d           7.910  46.553  52.791  0.00  0.00     0.037 A 
ATOM     18  C13  11 d           6.509  46.615  52.857  0.00  0.00     0.010 A 
BRANCH  16  19
ATOM     19  O4   11 d           9.943  45.645  51.802  0.00  0.00    -0.361 OA
ATOM     20  H17  11 d          10.136  45.185  50.894  0.00  0.00     0.217 HD
ENDBRANCH  16  19
ENDBRANCH  12  13
ENDBRANCH   1  12
TORSDOF 7
ENDMDL
MODEL 9
REMARK VINA RESULT:      -6.1      2.291      6.467
REMARK  7 active torsions:
REMARK  status: ('A' for Active; 'I' for Inactive)
REMARK    1  A    between atoms: C1_1  and  O2_3 
REMARK    2  A    between atoms: C1_1  and  C4_6 
REMARK    3  A    between atoms: O2_3  and  C2_4 
REMARK    4  A    between atoms: C4_6  and  N1_7 
REMARK    5  A    between atoms: C4_6  and  C7_11 
REMARK       I    between atoms: N1_7  and  C5_8 
REMARK    6  A    between atoms: C7_11  and  C8_12 
REMARK    7  A    between atoms: C11_15  and  O4_18 
ROOT
ATOM      1  C4   11 d           6.308  46.078  52.833  0.00  0.00     0.188 C 
ENDROOT
BRANCH   1   2
ATOM      2  C1   11 d           6.598  47.368  53.590  0.00  0.00     0.282 C 
ATOM      3  O1   11 d           5.703  47.893  54.302  0.00  0.00    -0.263 OA
BRANCH   2   4
ATOM      4  O2   11 d           7.778  48.115  53.335  0.00  0.00    -0.320 OA
BRANCH   4   5
ATOM      5  C2   11 d           8.489  48.323  54.581  0.00  0.00     0.174 C 
ATOM      6  C3   11 d           9.582  47.276  54.716  0.00  0.00     0.034 C 
ENDBRANCH   4   5
ENDBRANCH   2   4
ENDBRANCH   1   2
BRANCH   1   7
ATOM      7  N1   11 d           7.565  45.401  52.365  0.00  0.00    -0.347 N 
ATOM      8  C5   11 d           7.709  44.931  51.029  0.00  0.00     0.214 C 
ATOM      9  O3   11 d           6.757  45.086  50.186  0.00  0.00    -0.274 OA
ATOM     10  C6   11 d           8.962  44.242  50.588  0.00  0.00     0.117 C 
ATOM     11  H7   11 d           8.375  45.262  53.059  0.00  0.00     0.163 HD
ENDBRANCH   1   7
BRANCH   1  12
ATOM     12  C7   11 d           5.487  45.038  53.626  0.00  0.00     0.074 C 
BRANCH  12  13
ATOM     13  C8   11 d           4.242  44.526  52.936  0.00  0.00    -0.056 A 
ATOM     14  C9   11 d           2.984  45.095  53.223  0.00  0.00     0.010 A 
ATOM     15  C10  11 d           1.824  44.606  52.601  0.00  0.00     0.037 A 
ATOM     16  C11  11 d           1.906  43.535  51.701  0.00  0.00     0.065 A 
ATOM     17  C12  11 d           3.156  42.982  51.387  0.00  0.00     0.037 A 
ATOM     18  C13  11 d           4.317  43.460  52.016  0.00  0.00     0.010 A 
BRANCH  16  19
ATOM     19  O4   11 d           0.751  43.098  51.016  0.00  0.00    -0.361 OA
ATOM     20  H17  11 d           0.527  43.863  50.354  0.00  0.00     0.217 HD
ENDBRANCH  16  19
ENDBRANCH  12  13
ENDBRANCH   1  12
TORSDOF 7
ENDMDL
MODEL 10
REMARK VINA RESULT:      -6.0      2.115      6.130
REMARK  7 active torsions:
REMARK  status: ('A' for Active; 'I' for Inactive)
REMARK    1  A    between atoms: C1_1  and  O2_3 
REMARK    2  A    between atoms: C1_1  and  C4_6 
REMARK    3  A    between atoms: O2_3  and  C2_4 
REMARK    4  A    between atoms: C4_6  and  N1_7 
REMARK    5  A    between atoms: C4_6  and  C7_11 
REMARK       I    between atoms: N1_7  and  C5_8 
REMARK    6  A    between atoms: C7_11  and  C8_12 
REMARK    7  A    between atoms: C11_15  and  O4_18 
ROOT
ATOM      1  C4   11 d           5.473  46.023  54.094  0.00  0.00     0.188 C 
ENDROOT
BRANCH   1   2
ATOM      2  C1   11 d           4.772  45.005  54.984  0.00  0.00     0.282 C 
ATOM      3  O1   11 d           5.451  44.196  55.667  0.00  0.00    -0.263 OA
BRANCH   2   4
ATOM      4  O2   11 d           3.370  44.797  54.892  0.00  0.00    -0.320 OA
BRANCH   4   5
ATOM      5  C2   11 d           2.741  45.237  56.122  0.00  0.00     0.174 C 
ATOM      6  C3   11 d           1.258  44.910  56.071  0.00  0.00     0.034 C 
ENDBRANCH   4   5
ENDBRANCH   2   4
ENDBRANCH   1   2
BRANCH   1   7
ATOM      7  N1   11 d           6.963  45.834  54.081  0.00  0.00    -0.347 N 
ATOM      8  C5   11 d           7.857  46.918  54.315  0.00  0.00     0.214 C 
ATOM      9  O3   11 d           7.400  48.090  54.550  0.00  0.00    -0.274 OA
ATOM     10  C6   11 d           9.339  46.713  54.280  0.00  0.00     0.117 C 
ATOM     11  H7   11 d           7.367  44.857  53.885  0.00  0.00     0.163 HD
ENDBRANCH   1   7
BRANCH   1  12
ATOM     12  C7   11 d           4.994  46.032  52.625  0.00  0.00     0.074 C 
BRANCH  12  13
ATOM     13  C8   11 d           5.259  44.763  51.846  0.00  0.00    -0.056 A 
ATOM     14  C9   11 d           6.449  44.620  51.103  0.00  0.00     0.010 A 
ATOM     15  C10  11 d           6.687  43.453  50.360  0.00  0.00     0.037 A 
ATOM     16  C11  11 d           5.734  42.426  50.336  0.00  0.00     0.065 A 
ATOM     17  C12  11 d           4.561  42.548  51.095  0.00  0.00     0.037 A 
ATOM     18  C13  11 d           4.313  43.718  51.829  0.00  0.00     0.010 A 
BRANCH  16  19
ATOM     19  O4   11 d           6.010  41.221  49.655  0.00  0.00    -0.361 OA
ATOM     20  H17  11 d           6.050  40.498  50.395  0.00  0.00     0.217 HD
ENDBRANCH  16  19
ENDBRANCH  12  13
ENDBRANCH   1  12
TORSDOF 7
ENDMDL
