MODEL 1
REMARK VINA RESULT:      -8.3      0.000      0.000
REMARK  4 active torsions:
REMARK  status: ('A' for Active; 'I' for Inactive)
REMARK       I    between atoms: C1_1  and  N1_2 
REMARK    1  A    between atoms: C1_1  and  O2_20 
REMARK    2  A    between atoms: C4_5  and  N2_6 
REMARK    3  A    between atoms: N2_6  and  C5_7 
REMARK    4  A    between atoms: O2_20  and  C17_21 
ROOT
ATOM      1  N2   11 d         -15.211 205.886 114.663  0.00  0.00    -0.066 N 
ATOM      2  H6   11 d         -15.912 205.096 114.830  0.00  0.00     0.278 HD
ATOM      3  H7   11 d         -15.796 206.783 114.623  0.00  0.00     0.278 HD
ENDROOT
BRANCH   1   4
ATOM      4  C4   11 d         -14.318 205.996 115.874  0.00  0.00     0.189 C 
ATOM      5  C3   11 d         -12.924 205.392 115.542  0.00  0.00     0.053 C 
ATOM      6  C2   11 d         -11.906 205.570 116.670  0.00  0.00     0.130 C 
ATOM      7  N1   11 d         -11.882 207.011 117.030  0.00  0.00    -0.328 N 
ATOM      8  C1   11 d         -10.699 207.780 116.924  0.00  0.00     0.362 C 
ATOM      9  C16  11 d         -13.152 207.623 117.499  0.00  0.00     0.130 C 
ATOM     10  O1   11 d          -9.657 207.447 117.589  0.00  0.00    -0.238 OA
ATOM     11  C15  11 d         -14.197 207.456 116.392  0.00  0.00     0.053 C 
BRANCH   8  12
ATOM     12  O2   11 d         -10.737 208.959 116.126  0.00  0.00    -0.304 OA
BRANCH  12  13
ATOM     13  C17  11 d          -9.862 208.881 114.969  0.00  0.00     0.176 C 
ATOM     14  C18  11 d         -10.563 208.102 113.867  0.00  0.00     0.034 C 
ENDBRANCH  12  13
ENDBRANCH   8  12
ENDBRANCH   1   4
BRANCH   1  15
ATOM     15  C5   11 d         -14.510 205.707 113.332  0.00  0.00     0.194 C 
ATOM     16  C6   11 d         -14.039 207.063 112.708  0.00  0.00     0.017 C 
ATOM     17  C7   11 d         -15.258 207.910 112.261  0.00  0.00     0.011 C 
ATOM     18  C13  11 d         -13.139 206.782 111.479  0.00  0.00     0.011 C 
ATOM     19  C8   11 d         -16.060 207.143 111.182  0.00  0.00    -0.013 C 
ATOM     20  C9   11 d         -16.562 205.803 111.762  0.00  0.00     0.011 C 
ATOM     21  C14  11 d         -15.151 206.854 109.965  0.00  0.00     0.009 C 
ATOM     22  C10  11 d         -15.352 204.956 112.244  0.00  0.00     0.017 C 
ATOM     23  C11  11 d         -14.445 204.665 111.019  0.00  0.00     0.011 C 
ATOM     24  C12  11 d         -13.941 205.998 110.414  0.00  0.00    -0.013 C 
ENDBRANCH   1  15
TORSDOF 4
ENDMDL
MODEL 2
REMARK VINA RESULT:      -8.0      2.695      3.926
REMARK  4 active torsions:
REMARK  status: ('A' for Active; 'I' for Inactive)
REMARK       I    between atoms: C1_1  and  N1_2 
REMARK    1  A    between atoms: C1_1  and  O2_20 
REMARK    2  A    between atoms: C4_5  and  N2_6 
REMARK    3  A    between atoms: N2_6  and  C5_7 
REMARK    4  A    between atoms: O2_20  and  C17_21 
ROOT
ATOM      1  N2   11 d         -11.930 206.502 113.031  0.00  0.00    -0.066 N 
ATOM      2  H6   11 d         -11.174 205.778 112.811  0.00  0.00     0.278 HD
ATOM      3  H7   11 d         -12.299 206.244 114.004  0.00  0.00     0.278 HD
ENDROOT
BRANCH   1   4
ATOM      4  C4   11 d         -11.275 207.855 113.153  0.00  0.00     0.189 C 
ATOM      5  C3   11 d         -10.727 208.033 114.597  0.00  0.00     0.053 C 
ATOM      6  C2   11 d          -9.934 209.327 114.787  0.00  0.00     0.130 C 
ATOM      7  N1   11 d          -8.897 209.378 113.723  0.00  0.00    -0.328 N 
ATOM      8  C1   11 d          -7.519 209.431 114.037  0.00  0.00     0.362 C 
ATOM      9  C16  11 d          -9.359 209.360 112.312  0.00  0.00     0.130 C 
ATOM     10  O1   11 d          -7.058 210.400 114.736  0.00  0.00    -0.238 OA
ATOM     11  C15  11 d         -10.163 208.076 112.091  0.00  0.00     0.053 C 
BRANCH   8  12
ATOM     12  O2   11 d          -6.669 208.427 113.492  0.00  0.00    -0.304 OA
BRANCH  12  13
ATOM     13  C17  11 d          -5.626 208.013 114.414  0.00  0.00     0.176 C 
ATOM     14  C18  11 d          -4.269 208.294 113.786  0.00  0.00     0.034 C 
ENDBRANCH  12  13
ENDBRANCH   8  12
ENDBRANCH   1   4
BRANCH   1  15
ATOM     15  C5   11 d         -13.072 206.401 112.041  0.00  0.00     0.194 C 
ATOM     16  C6   11 d         -14.034 207.634 112.097  0.00  0.00     0.017 C 
ATOM     17  C7   11 d         -14.830 207.644 113.427  0.00  0.00     0.011 C 
ATOM     18  C13  11 d         -15.030 207.567 110.912  0.00  0.00     0.011 C 
ATOM     19  C8   11 d         -15.692 206.363 113.532  0.00  0.00    -0.013 C 
ATOM     20  C9   11 d         -14.779 205.119 113.499  0.00  0.00     0.011 C 
ATOM     21  C14  11 d         -16.673 206.297 112.337  0.00  0.00     0.009 C 
ATOM     22  C10  11 d         -13.952 205.111 112.185  0.00  0.00     0.017 C 
ATOM     23  C11  11 d         -14.939 205.041 110.990  0.00  0.00     0.011 C 
ATOM     24  C12  11 d         -15.874 206.276 111.011  0.00  0.00    -0.013 C 
ENDBRANCH   1  15
TORSDOF 4
ENDMDL
MODEL 3
REMARK VINA RESULT:      -7.6      2.859      4.033
REMARK  4 active torsions:
REMARK  status: ('A' for Active; 'I' for Inactive)
REMARK       I    between atoms: C1_1  and  N1_2 
REMARK    1  A    between atoms: C1_1  and  O2_20 
REMARK    2  A    between atoms: C4_5  and  N2_6 
REMARK    3  A    between atoms: N2_6  and  C5_7 
REMARK    4  A    between atoms: O2_20  and  C17_21 
ROOT
ATOM      1  N2   11 d         -15.135 205.715 114.662  0.00  0.00    -0.066 N 
ATOM      2  H6   11 d         -15.911 204.985 114.763  0.00  0.00     0.278 HD
ATOM      3  H7   11 d         -15.628 206.665 114.724  0.00  0.00     0.278 HD
ENDROOT
BRANCH   1   4
ATOM      4  C4   11 d         -14.224 205.613 115.859  0.00  0.00     0.189 C 
ATOM      5  C3   11 d         -14.284 206.940 116.666  0.00  0.00     0.053 C 
ATOM      6  C2   11 d         -13.486 206.889 117.971  0.00  0.00     0.130 C 
ATOM      7  N1   11 d         -13.933 205.689 118.725  0.00  0.00    -0.328 N 
ATOM      8  C1   11 d         -14.504 205.797 120.014  0.00  0.00     0.362 C 
ATOM      9  C16  11 d         -13.769 204.366 118.070  0.00  0.00     0.130 C 
ATOM     10  O1   11 d         -13.835 206.326 120.969  0.00  0.00    -0.238 OA
ATOM     11  C15  11 d         -14.553 204.386 116.754  0.00  0.00     0.053 C 
BRANCH   8  12
ATOM     12  O2   11 d         -15.796 205.234 120.223  0.00  0.00    -0.304 OA
BRANCH  12  13
ATOM     13  C17  11 d         -15.776 204.109 121.141  0.00  0.00     0.176 C 
ATOM     14  C18  11 d         -16.511 202.938 120.506  0.00  0.00     0.034 C 
ENDBRANCH  12  13
ENDBRANCH   8  12
ENDBRANCH   1   4
BRANCH   1  15
ATOM     15  C5   11 d         -14.469 205.605 113.306  0.00  0.00     0.194 C 
ATOM     16  C6   11 d         -14.014 206.991 112.739  0.00  0.00     0.017 C 
ATOM     17  C7   11 d         -15.245 207.857 112.366  0.00  0.00     0.011 C 
ATOM     18  C13  11 d         -13.147 206.773 111.474  0.00  0.00     0.011 C 
ATOM     19  C8   11 d         -16.075 207.144 111.271  0.00  0.00    -0.013 C 
ATOM     20  C9   11 d         -16.561 205.776 111.796  0.00  0.00     0.011 C 
ATOM     21  C14  11 d         -15.197 206.918 110.018  0.00  0.00     0.009 C 
ATOM     22  C10  11 d         -15.339 204.908 112.203  0.00  0.00     0.017 C 
ATOM     23  C11  11 d         -14.464 204.680 110.943  0.00  0.00     0.011 C 
ATOM     24  C12  11 d         -13.976 206.043 110.392  0.00  0.00    -0.013 C 
ENDBRANCH   1  15
TORSDOF 4
ENDMDL
MODEL 4
REMARK VINA RESULT:      -7.5      0.721      1.906
REMARK  4 active torsions:
REMARK  status: ('A' for Active; 'I' for Inactive)
REMARK       I    between atoms: C1_1  and  N1_2 
REMARK    1  A    between atoms: C1_1  and  O2_20 
REMARK    2  A    between atoms: C4_5  and  N2_6 
REMARK    3  A    between atoms: N2_6  and  C5_7 
REMARK    4  A    between atoms: O2_20  and  C17_21 
ROOT
ATOM      1  N2   11 d         -14.854 205.240 114.636  0.00  0.00    -0.066 N 
ATOM      2  H6   11 d         -14.198 204.489 114.251  0.00  0.00     0.278 HD
ATOM      3  H7   11 d         -15.744 204.719 114.928  0.00  0.00     0.278 HD
ENDROOT
BRANCH   1   4
ATOM      4  C4   11 d         -14.243 205.809 115.893  0.00  0.00     0.189 C 
ATOM      5  C3   11 d         -12.800 205.256 116.059  0.00  0.00     0.053 C 
ATOM      6  C2   11 d         -12.051 205.872 117.242  0.00  0.00     0.130 C 
ATOM      7  N1   11 d         -12.132 207.349 117.105  0.00  0.00    -0.328 N 
ATOM      8  C1   11 d         -10.969 208.146 116.986  0.00  0.00     0.362 C 
ATOM      9  C16  11 d         -13.484 207.964 117.086  0.00  0.00     0.130 C 
ATOM     10  O1   11 d         -10.088 208.135 117.915  0.00  0.00    -0.238 OA
ATOM     11  C15  11 d         -14.264 207.363 115.914  0.00  0.00     0.053 C 
BRANCH   8  12
ATOM     12  O2   11 d         -10.857 209.001 115.853  0.00  0.00    -0.304 OA
BRANCH  12  13
ATOM     13  C17  11 d         -10.787 208.267 114.601  0.00  0.00     0.176 C 
ATOM     14  C18  11 d          -9.527 208.680 113.854  0.00  0.00     0.034 C 
ENDBRANCH  12  13
ENDBRANCH   8  12
ENDBRANCH   1   4
BRANCH   1  15
ATOM     15  C5   11 d         -15.213 206.241 113.558  0.00  0.00     0.194 C 
ATOM     16  C6   11 d         -16.034 205.604 112.387  0.00  0.00     0.017 C 
ATOM     17  C7   11 d         -15.148 204.631 111.568  0.00  0.00     0.011 C 
ATOM     18  C13  11 d         -16.555 206.724 111.451  0.00  0.00     0.011 C 
ATOM     19  C8   11 d         -13.956 205.402 110.949  0.00  0.00    -0.013 C 
ATOM     20  C9   11 d         -13.107 206.034 112.073  0.00  0.00     0.011 C 
ATOM     21  C14  11 d         -14.487 206.526 110.029  0.00  0.00     0.009 C 
ATOM     22  C10  11 d         -13.990 206.988 112.922  0.00  0.00     0.017 C 
ATOM     23  C11  11 d         -14.515 208.116 111.996  0.00  0.00     0.011 C 
ATOM     24  C12  11 d         -15.361 207.502 110.853  0.00  0.00    -0.013 C 
ENDBRANCH   1  15
TORSDOF 4
ENDMDL
MODEL 5
REMARK VINA RESULT:      -7.2      2.618      4.257
REMARK  4 active torsions:
REMARK  status: ('A' for Active; 'I' for Inactive)
REMARK       I    between atoms: C1_1  and  N1_2 
REMARK    1  A    between atoms: C1_1  and  O2_20 
REMARK    2  A    between atoms: C4_5  and  N2_6 
REMARK    3  A    between atoms: N2_6  and  C5_7 
REMARK    4  A    between atoms: O2_20  and  C17_21 
ROOT
ATOM      1  N2   11 d         -13.434 205.420 114.278  0.00  0.00    -0.066 N 
ATOM      2  H6   11 d         -12.569 205.266 113.668  0.00  0.00     0.278 HD
ATOM      3  H7   11 d         -13.785 204.438 114.530  0.00  0.00     0.278 HD
ENDROOT
BRANCH   1   4
ATOM      4  C4   11 d         -13.000 206.075 115.566  0.00  0.00     0.189 C 
ATOM      5  C3   11 d         -14.132 207.014 116.072  0.00  0.00     0.053 C 
ATOM      6  C2   11 d         -13.837 207.631 117.440  0.00  0.00     0.130 C 
ATOM      7  N1   11 d         -13.494 206.523 118.369  0.00  0.00    -0.328 N 
ATOM      8  C1   11 d         -14.253 206.276 119.537  0.00  0.00     0.362 C 
ATOM      9  C16  11 d         -12.328 205.671 118.022  0.00  0.00     0.130 C 
ATOM     10  O1   11 d         -14.366 207.185 120.431  0.00  0.00    -0.238 OA
ATOM     11  C15  11 d         -12.590 205.041 116.651  0.00  0.00     0.053 C 
BRANCH   8  12
ATOM     12  O2   11 d         -14.811 204.977 119.710  0.00  0.00    -0.304 OA
BRANCH  12  13
ATOM     13  C17  11 d         -15.591 204.860 120.930  0.00  0.00     0.176 C 
ATOM     14  C18  11 d         -15.840 203.387 121.219  0.00  0.00     0.034 C 
ENDBRANCH  12  13
ENDBRANCH   8  12
ENDBRANCH   1   4
BRANCH   1  15
ATOM     15  C5   11 d         -14.518 206.135 113.499  0.00  0.00     0.194 C 
ATOM     16  C6   11 d         -15.348 205.169 112.589  0.00  0.00     0.017 C 
ATOM     17  C7   11 d         -14.478 204.642 111.419  0.00  0.00     0.011 C 
ATOM     18  C13  11 d         -16.570 205.926 112.009  0.00  0.00     0.011 C 
ATOM     19  C8   11 d         -14.001 205.827 110.545  0.00  0.00    -0.013 C 
ATOM     20  C9   11 d         -13.160 206.798 111.402  0.00  0.00     0.011 C 
ATOM     21  C14  11 d         -15.226 206.585 109.984  0.00  0.00     0.009 C 
ATOM     22  C10  11 d         -14.010 207.311 112.596  0.00  0.00     0.017 C 
ATOM     23  C11  11 d         -15.235 208.074 112.028  0.00  0.00     0.011 C 
ATOM     24  C12  11 d         -16.086 207.120 111.154  0.00  0.00    -0.013 C 
ENDBRANCH   1  15
TORSDOF 4
ENDMDL
MODEL 6
REMARK VINA RESULT:      -7.1      1.745      2.835
REMARK  4 active torsions:
REMARK  status: ('A' for Active; 'I' for Inactive)
REMARK       I    between atoms: C1_1  and  N1_2 
REMARK    1  A    between atoms: C1_1  and  O2_20 
REMARK    2  A    between atoms: C4_5  and  N2_6 
REMARK    3  A    between atoms: N2_6  and  C5_7 
REMARK    4  A    between atoms: O2_20  and  C17_21 
ROOT
ATOM      1  N2   11 d         -14.741 205.211 114.461  0.00  0.00    -0.066 N 
ATOM      2  H6   11 d         -13.774 204.827 114.213  0.00  0.00     0.278 HD
ATOM      3  H7   11 d         -15.391 204.359 114.474  0.00  0.00     0.278 HD
ENDROOT
BRANCH   1   4
ATOM      4  C4   11 d         -14.694 205.751 115.869  0.00  0.00     0.189 C 
ATOM      5  C3   11 d         -14.324 204.602 116.848  0.00  0.00     0.053 C 
ATOM      6  C2   11 d         -14.130 205.077 118.290  0.00  0.00     0.130 C 
ATOM      7  N1   11 d         -13.160 206.202 118.265  0.00  0.00    -0.328 N 
ATOM      8  C1   11 d         -11.935 206.137 118.969  0.00  0.00     0.362 C 
ATOM      9  C16  11 d         -13.517 207.400 117.463  0.00  0.00     0.130 C 
ATOM     10  O1   11 d         -11.934 205.973 120.239  0.00  0.00    -0.238 OA
ATOM     11  C15  11 d         -13.725 206.957 116.012  0.00  0.00     0.053 C 
BRANCH   8  12
ATOM     12  O2   11 d         -10.730 206.336 118.235  0.00  0.00    -0.304 OA
BRANCH  12  13
ATOM     13  C17  11 d          -9.955 207.463 118.724  0.00  0.00     0.176 C 
ATOM     14  C18  11 d          -8.603 206.963 119.208  0.00  0.00     0.034 C 
ENDBRANCH  12  13
ENDBRANCH   8  12
ENDBRANCH   1   4
BRANCH   1  15
ATOM     15  C5   11 d         -15.225 206.171 113.395  0.00  0.00     0.194 C 
ATOM     16  C6   11 d         -15.950 205.448 112.211  0.00  0.00     0.017 C 
ATOM     17  C7   11 d         -14.940 204.612 111.383  0.00  0.00     0.011 C 
ATOM     18  C13  11 d         -16.612 206.502 111.288  0.00  0.00     0.011 C 
ATOM     19  C8   11 d         -13.859 205.542 110.782  0.00  0.00    -0.013 C 
ATOM     20  C9   11 d         -13.105 206.265 111.918  0.00  0.00     0.011 C 
ATOM     21  C14  11 d         -14.530 206.600 109.874  0.00  0.00     0.009 C 
ATOM     22  C10  11 d         -14.109 207.082 112.776  0.00  0.00     0.017 C 
ATOM     23  C11  11 d         -14.776 208.144 111.862  0.00  0.00     0.011 C 
ATOM     24  C12  11 d         -15.529 207.440 110.706  0.00  0.00    -0.013 C 
ENDBRANCH   1  15
TORSDOF 4
ENDMDL
MODEL 7
REMARK VINA RESULT:      -7.1      3.800      5.954
REMARK  4 active torsions:
REMARK  status: ('A' for Active; 'I' for Inactive)
REMARK       I    between atoms: C1_1  and  N1_2 
REMARK    1  A    between atoms: C1_1  and  O2_20 
REMARK    2  A    between atoms: C4_5  and  N2_6 
REMARK    3  A    between atoms: N2_6  and  C5_7 
REMARK    4  A    between atoms: O2_20  and  C17_21 
ROOT
ATOM      1  N2   11 d         -10.329 207.593 113.784  0.00  0.00    -0.066 N 
ATOM      2  H6   11 d         -10.669 207.212 112.845  0.00  0.00     0.278 HD
ATOM      3  H7   11 d          -9.838 206.770 114.265  0.00  0.00     0.278 HD
ENDROOT
BRANCH   1   4
ATOM      4  C4   11 d          -9.276 208.641 113.522  0.00  0.00     0.189 C 
ATOM      5  C3   11 d          -8.537 208.971 114.849  0.00  0.00     0.053 C 
ATOM      6  C2   11 d          -7.364 209.936 114.663  0.00  0.00     0.130 C 
ATOM      7  N1   11 d          -6.493 209.382 113.594  0.00  0.00    -0.328 N 
ATOM      8  C1   11 d          -5.140 209.051 113.842  0.00  0.00     0.362 C 
ATOM      9  C16  11 d          -7.097 209.177 112.253  0.00  0.00     0.130 C 
ATOM     10  O1   11 d          -4.323 209.952 114.243  0.00  0.00    -0.238 OA
ATOM     11  C15  11 d          -8.281 208.218 112.406  0.00  0.00     0.053 C 
BRANCH   8  12
ATOM     12  O2   11 d          -4.714 207.722 113.558  0.00  0.00    -0.304 OA
BRANCH  12  13
ATOM     13  C17  11 d          -3.470 207.679 112.810  0.00  0.00     0.176 C 
ATOM     14  C18  11 d          -3.767 207.918 111.337  0.00  0.00     0.034 C 
ENDBRANCH  12  13
ENDBRANCH   8  12
ENDBRANCH   1   4
BRANCH   1  15
ATOM     15  C5   11 d         -11.499 208.024 114.643  0.00  0.00     0.194 C 
ATOM     16  C6   11 d         -11.682 207.130 115.914  0.00  0.00     0.017 C 
ATOM     17  C7   11 d         -12.150 205.706 115.515  0.00  0.00     0.011 C 
ATOM     18  C13  11 d         -12.741 207.767 116.848  0.00  0.00     0.011 C 
ATOM     19  C8   11 d         -13.515 205.788 114.790  0.00  0.00    -0.013 C 
ATOM     20  C9   11 d         -13.377 206.649 113.517  0.00  0.00     0.011 C 
ATOM     21  C14  11 d         -14.562 206.439 115.725  0.00  0.00     0.009 C 
ATOM     22  C10  11 d         -12.878 208.070 113.898  0.00  0.00     0.017 C 
ATOM     23  C11  11 d         -13.932 208.720 114.832  0.00  0.00     0.011 C 
ATOM     24  C12  11 d         -14.096 207.864 116.111  0.00  0.00    -0.013 C 
ENDBRANCH   1  15
TORSDOF 4
ENDMDL
MODEL 8
REMARK VINA RESULT:      -7.0      4.280      5.928
REMARK  4 active torsions:
REMARK  status: ('A' for Active; 'I' for Inactive)
REMARK       I    between atoms: C1_1  and  N1_2 
REMARK    1  A    between atoms: C1_1  and  O2_20 
REMARK    2  A    between atoms: C4_5  and  N2_6 
REMARK    3  A    between atoms: N2_6  and  C5_7 
REMARK    4  A    between atoms: O2_20  and  C17_21 
ROOT
ATOM      1  N2   11 d         -13.920 206.547 116.801  0.00  0.00    -0.066 N 
ATOM      2  H6   11 d         -14.827 206.681 116.251  0.00  0.00     0.278 HD
ATOM      3  H7   11 d         -13.934 207.301 117.563  0.00  0.00     0.278 HD
ENDROOT
BRANCH   1   4
ATOM      4  C4   11 d         -13.978 205.212 117.501  0.00  0.00     0.189 C 
ATOM      5  C3   11 d         -14.291 205.434 119.007  0.00  0.00     0.053 C 
ATOM      6  C2   11 d         -14.494 204.130 119.780  0.00  0.00     0.130 C 
ATOM      7  N1   11 d         -15.511 203.329 119.051  0.00  0.00    -0.328 N 
ATOM      8  C1   11 d         -16.727 202.944 119.663  0.00  0.00     0.362 C 
ATOM      9  C16  11 d         -15.211 202.953 117.645  0.00  0.00     0.130 C 
ATOM     10  O1   11 d         -16.710 202.227 120.724  0.00  0.00    -0.238 OA
ATOM     11  C15  11 d         -14.996 204.240 116.844  0.00  0.00     0.053 C 
BRANCH   8  12
ATOM     12  O2   11 d         -17.944 203.312 119.023  0.00  0.00    -0.304 OA
BRANCH  12  13
ATOM     13  C17  11 d         -18.900 203.911 119.938  0.00  0.00     0.176 C 
ATOM     14  C18  11 d         -20.284 203.349 119.647  0.00  0.00     0.034 C 
ENDBRANCH  12  13
ENDBRANCH   8  12
ENDBRANCH   1   4
BRANCH   1  15
ATOM     15  C5   11 d         -12.716 206.782 115.913  0.00  0.00     0.194 C 
ATOM     16  C6   11 d         -12.684 208.222 115.302  0.00  0.00     0.017 C 
ATOM     17  C7   11 d         -13.824 208.400 114.266  0.00  0.00     0.011 C 
ATOM     18  C13  11 d         -11.322 208.458 114.602  0.00  0.00     0.011 C 
ATOM     19  C8   11 d         -13.641 207.389 113.108  0.00  0.00    -0.013 C 
ATOM     20  C9   11 d         -13.684 205.949 113.664  0.00  0.00     0.011 C 
ATOM     21  C14  11 d         -12.272 207.622 112.425  0.00  0.00     0.009 C 
ATOM     22  C10  11 d         -12.567 205.766 114.728  0.00  0.00     0.017 C 
ATOM     23  C11  11 d         -11.197 205.996 114.038  0.00  0.00     0.011 C 
ATOM     24  C12  11 d         -11.137 207.432 113.461  0.00  0.00    -0.013 C 
ENDBRANCH   1  15
TORSDOF 4
ENDMDL
MODEL 9
REMARK VINA RESULT:      -6.9      1.651      2.666
REMARK  4 active torsions:
REMARK  status: ('A' for Active; 'I' for Inactive)
REMARK       I    between atoms: C1_1  and  N1_2 
REMARK    1  A    between atoms: C1_1  and  O2_20 
REMARK    2  A    between atoms: C4_5  and  N2_6 
REMARK    3  A    between atoms: N2_6  and  C5_7 
REMARK    4  A    between atoms: O2_20  and  C17_21 
ROOT
ATOM      1  N2   11 d         -12.784 205.685 114.128  0.00  0.00    -0.066 N 
ATOM      2  H6   11 d         -11.990 205.680 113.412  0.00  0.00     0.278 HD
ATOM      3  H7   11 d         -12.636 204.804 114.723  0.00  0.00     0.278 HD
ENDROOT
BRANCH   1   4
ATOM      4  C4   11 d         -12.597 206.869 115.043  0.00  0.00     0.189 C 
ATOM      5  C3   11 d         -12.617 206.387 116.520  0.00  0.00     0.053 C 
ATOM      6  C2   11 d         -12.311 207.501 117.523  0.00  0.00     0.130 C 
ATOM      7  N1   11 d         -11.039 208.146 117.103  0.00  0.00    -0.328 N 
ATOM      8  C1   11 d          -9.907 208.168 117.950  0.00  0.00     0.362 C 
ATOM      9  C16  11 d         -10.994 208.760 115.752  0.00  0.00     0.130 C 
ATOM     10  O1   11 d          -9.979 208.725 119.101  0.00  0.00    -0.238 OA
ATOM     11  C15  11 d         -11.304 207.670 114.723  0.00  0.00     0.053 C 
BRANCH   8  12
ATOM     12  O2   11 d          -8.688 207.626 117.452  0.00  0.00    -0.304 OA
BRANCH  12  13
ATOM     13  C17  11 d          -7.515 208.231 118.060  0.00  0.00     0.176 C 
ATOM     14  C18  11 d          -6.403 208.307 117.024  0.00  0.00     0.034 C 
ENDBRANCH  12  13
ENDBRANCH   8  12
ENDBRANCH   1   4
BRANCH   1  15
ATOM     15  C5   11 d         -14.128 205.581 113.438  0.00  0.00     0.194 C 
ATOM     16  C6   11 d         -14.026 204.979 111.997  0.00  0.00     0.017 C 
ATOM     17  C7   11 d         -13.309 205.970 111.043  0.00  0.00     0.011 C 
ATOM     18  C13  11 d         -15.448 204.693 111.453  0.00  0.00     0.011 C 
ATOM     19  C8   11 d         -14.116 207.287 110.954  0.00  0.00    -0.013 C 
ATOM     20  C9   11 d         -14.227 207.926 112.355  0.00  0.00     0.011 C 
ATOM     21  C14  11 d         -15.539 206.990 110.424  0.00  0.00     0.009 C 
ATOM     22  C10  11 d         -14.915 206.932 113.329  0.00  0.00     0.017 C 
ATOM     23  C11  11 d         -16.343 206.640 112.797  0.00  0.00     0.011 C 
ATOM     24  C12  11 d         -16.255 206.010 111.385  0.00  0.00    -0.013 C 
ENDBRANCH   1  15
TORSDOF 4
ENDMDL
MODEL 10
REMARK VINA RESULT:      -6.8      4.601      6.384
REMARK  4 active torsions:
REMARK  status: ('A' for Active; 'I' for Inactive)
REMARK       I    between atoms: C1_1  and  N1_2 
REMARK    1  A    between atoms: C1_1  and  O2_20 
REMARK    2  A    between atoms: C4_5  and  N2_6 
REMARK    3  A    between atoms: N2_6  and  C5_7 
REMARK    4  A    between atoms: O2_20  and  C17_21 
ROOT
ATOM      1  N2   11 d         -13.877 205.134 117.358  0.00  0.00    -0.066 N 
ATOM      2  H6   11 d         -13.057 204.477 117.158  0.00  0.00     0.278 HD
ATOM      3  H7   11 d         -14.733 204.665 116.914  0.00  0.00     0.278 HD
ENDROOT
BRANCH   1   4
ATOM      4  C4   11 d         -14.114 205.163 118.847  0.00  0.00     0.189 C 
ATOM      5  C3   11 d         -14.493 206.607 119.279  0.00  0.00     0.053 C 
ATOM      6  C2   11 d         -14.874 206.714 120.757  0.00  0.00     0.130 C 
ATOM      7  N1   11 d         -15.923 205.696 121.025  0.00  0.00    -0.328 N 
ATOM      8  C1   11 d         -17.206 206.062 121.493  0.00  0.00     0.362 C 
ATOM      9  C16  11 d         -15.579 204.273 120.772  0.00  0.00     0.130 C 
ATOM     10  O1   11 d         -17.328 206.691 122.602  0.00  0.00    -0.238 OA
ATOM     11  C15  11 d         -15.186 204.133 119.299  0.00  0.00     0.053 C 
BRANCH   8  12
ATOM     12  O2   11 d         -18.339 205.645 120.737  0.00  0.00    -0.304 OA
BRANCH  12  13
ATOM     13  C17  11 d         -19.327 204.949 121.544  0.00  0.00     0.176 C 
ATOM     14  C18  11 d         -20.314 204.248 120.624  0.00  0.00     0.034 C 
ENDBRANCH  12  13
ENDBRANCH   8  12
ENDBRANCH   1   4
BRANCH   1  15
ATOM     15  C5   11 d         -13.662 206.476 116.691  0.00  0.00     0.194 C 
ATOM     16  C6   11 d         -14.658 206.735 115.512  0.00  0.00     0.017 C 
ATOM     17  C7   11 d         -14.350 205.790 114.322  0.00  0.00     0.011 C 
ATOM     18  C13  11 d         -14.528 208.204 115.038  0.00  0.00     0.011 C 
ATOM     19  C8   11 d         -12.917 206.054 113.801  0.00  0.00    -0.013 C 
ATOM     20  C9   11 d         -11.897 205.793 114.929  0.00  0.00     0.011 C 
ATOM     21  C14  11 d         -12.793 207.526 113.343  0.00  0.00     0.009 C 
ATOM     22  C10  11 d         -12.212 206.711 116.142  0.00  0.00     0.017 C 
ATOM     23  C11  11 d         -12.082 208.186 115.679  0.00  0.00     0.011 C 
ATOM     24  C12  11 d         -13.089 208.466 114.537  0.00  0.00    -0.013 C 
ENDBRANCH   1  15
TORSDOF 4
ENDMDL
