MODEL 1
REMARK VINA RESULT:      -7.5      0.000      0.000
REMARK  3 active torsions:
REMARK  status: ('A' for Active; 'I' for Inactive)
REMARK    1  A    between atoms: C4_6  and  S1_7 
REMARK    2  A    between atoms: S1_7  and  C5_8 
REMARK    3  A    between atoms: C5_8  and  C6_9 
ROOT
ATOM      1  C1   11 d           5.697  45.681  52.006  0.00  0.00     0.245 A 
ATOM      2  N1   11 d           6.106  44.699  51.061  0.00  0.00    -0.251 N 
ATOM      3  C2   11 d           7.404  45.125  50.674  0.00  0.00     0.232 A 
ATOM      4  O1   11 d           8.147  44.521  49.825  0.00  0.00    -0.273 OA
ATOM      5  C3   11 d           7.868  46.374  51.339  0.00  0.00     0.128 A 
ATOM      6  C4   11 d           6.706  46.760  52.257  0.00  0.00     0.149 A 
ATOM      7  C7   11 d           5.347  43.497  50.587  0.00  0.00     0.045 A 
ATOM      8  C8   11 d           5.890  42.602  49.627  0.00  0.00     0.032 A 
ATOM      9  C9   11 d           5.180  41.477  49.181  0.00  0.00     0.026 A 
ATOM     10  C10  11 d           3.902  41.207  49.682  0.00  0.00     0.034 A 
ATOM     11 Cl1   11 d           3.002  39.780  49.115  0.00  0.00    -0.084 Cl
ATOM     12  C11  11 d           3.339  42.066  50.629  0.00  0.00     0.026 A 
ATOM     13  C12  11 d           4.048  43.192  51.075  0.00  0.00     0.032 A 
ATOM     14  O4   11 d           4.564  45.682  52.600  0.00  0.00    -0.271 OA
ENDROOT
BRANCH   6  15
ATOM     15  S1   11 d           7.257  46.811  54.018  0.00  0.00    -0.144 SA
BRANCH  15  16
ATOM     16  C5   11 d           6.743  48.549  54.364  0.00  0.00     0.187 C 
BRANCH  16  17
ATOM     17  C6   11 d           5.297  48.661  54.738  0.00  0.00     0.182 C 
ATOM     18  O2   11 d           4.738  49.836  54.878  0.00  0.00    -0.647 OA
ATOM     19  O3   11 d           4.619  47.584  55.039  0.00  0.00    -0.647 OA
ENDBRANCH  16  17
ENDBRANCH  15  16
ENDBRANCH   6  15
TORSDOF 3
ENDMDL
MODEL 2
REMARK VINA RESULT:      -7.3      4.245      7.197
REMARK  3 active torsions:
REMARK  status: ('A' for Active; 'I' for Inactive)
REMARK    1  A    between atoms: C4_6  and  S1_7 
REMARK    2  A    between atoms: S1_7  and  C5_8 
REMARK    3  A    between atoms: C5_8  and  C6_9 
ROOT
ATOM      1  C1   11 d           4.905  43.394  50.902  0.00  0.00     0.245 A 
ATOM      2  N1   11 d           6.127  44.106  50.750  0.00  0.00    -0.251 N 
ATOM      3  C2   11 d           6.820  43.375  49.749  0.00  0.00     0.232 A 
ATOM      4  O1   11 d           7.981  43.672  49.301  0.00  0.00    -0.273 OA
ATOM      5  C3   11 d           6.085  42.187  49.232  0.00  0.00     0.128 A 
ATOM      6  C4   11 d           4.769  42.195  50.013  0.00  0.00     0.149 A 
ATOM      7  C7   11 d           6.577  45.338  51.474  0.00  0.00     0.045 A 
ATOM      8  C8   11 d           7.839  45.937  51.216  0.00  0.00     0.032 A 
ATOM      9  C9   11 d           8.262  47.090  51.894  0.00  0.00     0.026 A 
ATOM     10  C10  11 d           7.438  47.685  52.854  0.00  0.00     0.034 A 
ATOM     11 Cl1   11 d           7.976  49.147  53.715  0.00  0.00    -0.084 Cl
ATOM     12  C11  11 d           6.189  47.123  53.133  0.00  0.00     0.026 A 
ATOM     13  C12  11 d           5.765  45.969  52.454  0.00  0.00     0.032 A 
ATOM     14  O4   11 d           3.982  43.714  51.728  0.00  0.00    -0.271 OA
ENDROOT
BRANCH   6  15
ATOM     15  S1   11 d           3.331  42.330  48.865  0.00  0.00    -0.144 SA
BRANCH  15  16
ATOM     16  C5   11 d           3.784  40.914  47.770  0.00  0.00     0.187 C 
BRANCH  16  17
ATOM     17  C6   11 d           3.021  39.667  48.093  0.00  0.00     0.182 C 
ATOM     18  O2   11 d           2.596  39.447  49.312  0.00  0.00    -0.647 OA
ATOM     19  O3   11 d           2.879  38.739  47.183  0.00  0.00    -0.647 OA
ENDBRANCH  16  17
ENDBRANCH  15  16
ENDBRANCH   6  15
TORSDOF 3
ENDMDL
MODEL 3
REMARK VINA RESULT:      -7.3      1.837      2.071
REMARK  3 active torsions:
REMARK  status: ('A' for Active; 'I' for Inactive)
REMARK    1  A    between atoms: C4_6  and  S1_7 
REMARK    2  A    between atoms: S1_7  and  C5_8 
REMARK    3  A    between atoms: C5_8  and  C6_9 
ROOT
ATOM      1  C1   11 d           5.478  45.387  51.893  0.00  0.00     0.245 A 
ATOM      2  N1   11 d           5.974  44.508  50.890  0.00  0.00    -0.251 N 
ATOM      3  C2   11 d           7.265  45.023  50.600  0.00  0.00     0.232 A 
ATOM      4  O1   11 d           8.072  44.528  49.739  0.00  0.00    -0.273 OA
ATOM      5  C3   11 d           7.639  46.231  51.386  0.00  0.00     0.128 A 
ATOM      6  C4   11 d           6.422  46.485  52.279  0.00  0.00     0.149 A 
ATOM      7  C7   11 d           5.296  43.318  50.283  0.00  0.00     0.045 A 
ATOM      8  C8   11 d           5.921  42.533  49.278  0.00  0.00     0.032 A 
ATOM      9  C9   11 d           5.286  41.419  48.709  0.00  0.00     0.026 A 
ATOM     10  C10  11 d           4.003  41.050  49.125  0.00  0.00     0.034 A 
ATOM     11 Cl1   11 d           3.198  39.638  48.402  0.00  0.00    -0.084 Cl
ATOM     12  C11  11 d           3.359  41.800  50.113  0.00  0.00     0.026 A 
ATOM     13  C12  11 d           3.993  42.914  50.683  0.00  0.00     0.032 A 
ATOM     14  O4   11 d           4.322  45.287  52.432  0.00  0.00    -0.271 OA
ENDROOT
BRANCH   6  15
ATOM     15  S1   11 d           6.895  46.411  54.061  0.00  0.00    -0.144 SA
BRANCH  15  16
ATOM     16  C5   11 d           7.829  48.002  54.112  0.00  0.00     0.187 C 
BRANCH  16  17
ATOM     17  C6   11 d           9.275  47.812  54.454  0.00  0.00     0.182 C 
ATOM     18  O2   11 d           9.751  48.256  55.590  0.00  0.00    -0.647 OA
ATOM     19  O3   11 d          10.091  47.304  53.567  0.00  0.00    -0.647 OA
ENDBRANCH  16  17
ENDBRANCH  15  16
ENDBRANCH   6  15
TORSDOF 3
ENDMDL
MODEL 4
REMARK VINA RESULT:      -7.3      4.014      7.303
REMARK  3 active torsions:
REMARK  status: ('A' for Active; 'I' for Inactive)
REMARK    1  A    between atoms: C4_6  and  S1_7 
REMARK    2  A    between atoms: S1_7  and  C5_8 
REMARK    3  A    between atoms: C5_8  and  C6_9 
ROOT
ATOM      1  C1   11 d           6.051  44.227  50.626  0.00  0.00     0.245 A 
ATOM      2  N1   11 d           5.701  44.753  51.901  0.00  0.00    -0.251 N 
ATOM      3  C2   11 d           4.526  44.035  52.249  0.00  0.00     0.232 A 
ATOM      4  O1   11 d           3.867  44.196  53.334  0.00  0.00    -0.273 OA
ATOM      5  C3   11 d           4.085  43.043  51.230  0.00  0.00     0.128 A 
ATOM      6  C4   11 d           5.126  43.164  50.116  0.00  0.00     0.149 A 
ATOM      7  C7   11 d           6.405  45.813  52.691  0.00  0.00     0.045 A 
ATOM      8  C8   11 d           5.927  46.241  53.958  0.00  0.00     0.032 A 
ATOM      9  C9   11 d           6.585  47.235  54.699  0.00  0.00     0.026 A 
ATOM     10  C10  11 d           7.744  47.835  54.198  0.00  0.00     0.034 A 
ATOM     11 Cl1   11 d           8.577  49.096  55.137  0.00  0.00    -0.084 Cl
ATOM     12  C11  11 d           8.243  47.437  52.955  0.00  0.00     0.026 A 
ATOM     13  C12  11 d           7.585  46.443  52.213  0.00  0.00     0.032 A 
ATOM     14  O4   11 d           7.058  44.616  49.938  0.00  0.00    -0.271 OA
ENDROOT
BRANCH   6  15
ATOM     15  S1   11 d           5.987  41.553  49.850  0.00  0.00    -0.144 SA
BRANCH  15  16
ATOM     16  C5   11 d           5.682  41.434  48.033  0.00  0.00     0.187 C 
BRANCH  16  17
ATOM     17  C6   11 d           4.274  41.041  47.708  0.00  0.00     0.182 C 
ATOM     18  O2   11 d           3.687  41.508  46.634  0.00  0.00    -0.647 OA
ATOM     19  O3   11 d           3.588  40.320  48.557  0.00  0.00    -0.647 OA
ENDBRANCH  16  17
ENDBRANCH  15  16
ENDBRANCH   6  15
TORSDOF 3
ENDMDL
MODEL 5
REMARK VINA RESULT:      -6.7      4.221      6.894
REMARK  3 active torsions:
REMARK  status: ('A' for Active; 'I' for Inactive)
REMARK    1  A    between atoms: C4_6  and  S1_7 
REMARK    2  A    between atoms: S1_7  and  C5_8 
REMARK    3  A    between atoms: C5_8  and  C6_9 
ROOT
ATOM      1  C1   11 d           4.142  42.478  51.088  0.00  0.00     0.245 A 
ATOM      2  N1   11 d           5.304  43.146  50.610  0.00  0.00    -0.251 N 
ATOM      3  C2   11 d           5.723  42.349  49.513  0.00  0.00     0.232 A 
ATOM      4  O1   11 d           6.746  42.590  48.784  0.00  0.00    -0.273 OA
ATOM      5  C3   11 d           4.866  41.159  49.252  0.00  0.00     0.128 A 
ATOM      6  C4   11 d           3.777  41.242  50.324  0.00  0.00     0.149 A 
ATOM      7  C7   11 d           5.935  44.399  51.138  0.00  0.00     0.045 A 
ATOM      8  C8   11 d           7.107  44.947  50.553  0.00  0.00     0.032 A 
ATOM      9  C9   11 d           7.701  46.119  51.047  0.00  0.00     0.026 A 
ATOM     10  C10  11 d           7.142  46.783  52.144  0.00  0.00     0.034 A 
ATOM     11 Cl1   11 d           7.895  48.268  52.770  0.00  0.00    -0.084 Cl
ATOM     12  C11  11 d           5.988  46.271  52.743  0.00  0.00     0.026 A 
ATOM     13  C12  11 d           5.394  45.099  52.249  0.00  0.00     0.032 A 
ATOM     14  O4   11 d           3.451  42.864  52.093  0.00  0.00    -0.271 OA
ENDROOT
BRANCH   6  15
ATOM     15  S1   11 d           2.107  41.363  49.548  0.00  0.00    -0.144 SA
BRANCH  15  16
ATOM     16  C5   11 d           2.552  42.594  48.247  0.00  0.00     0.187 C 
BRANCH  16  17
ATOM     17  C6   11 d           2.085  42.187  46.883  0.00  0.00     0.182 C 
ATOM     18  O2   11 d           2.950  41.849  45.960  0.00  0.00    -0.647 OA
ATOM     19  O3   11 d           0.817  42.281  46.576  0.00  0.00    -0.647 OA
ENDBRANCH  16  17
ENDBRANCH  15  16
ENDBRANCH   6  15
TORSDOF 3
ENDMDL
MODEL 6
REMARK VINA RESULT:      -6.7      4.611      6.059
REMARK  3 active torsions:
REMARK  status: ('A' for Active; 'I' for Inactive)
REMARK    1  A    between atoms: C4_6  and  S1_7 
REMARK    2  A    between atoms: S1_7  and  C5_8 
REMARK    3  A    between atoms: C5_8  and  C6_9 
ROOT
ATOM      1  C1   11 d           2.779  45.322  54.665  0.00  0.00     0.245 A 
ATOM      2  N1   11 d           3.581  45.007  53.533  0.00  0.00    -0.251 N 
ATOM      3  C2   11 d           2.883  43.936  52.915  0.00  0.00     0.232 A 
ATOM      4  O1   11 d           3.262  43.338  51.849  0.00  0.00    -0.273 OA
ATOM      5  C3   11 d           1.634  43.528  53.614  0.00  0.00     0.128 A 
ATOM      6  C4   11 d           1.551  44.475  54.812  0.00  0.00     0.149 A 
ATOM      7  C7   11 d           4.859  45.654  53.095  0.00  0.00     0.045 A 
ATOM      8  C8   11 d           5.555  45.221  51.934  0.00  0.00     0.032 A 
ATOM      9  C9   11 d           6.753  45.826  51.524  0.00  0.00     0.026 A 
ATOM     10  C10  11 d           7.297  46.883  52.259  0.00  0.00     0.034 A 
ATOM     11 Cl1   11 d           8.817  47.648  51.738  0.00  0.00    -0.084 Cl
ATOM     12  C11  11 d           6.638  47.335  53.406  0.00  0.00     0.026 A 
ATOM     13  C12  11 d           5.439  46.731  53.817  0.00  0.00     0.032 A 
ATOM     14  O4   11 d           3.059  46.236  55.515  0.00  0.00    -0.271 OA
ENDROOT
BRANCH   6  15
ATOM     15  S1   11 d          -0.001  45.472  54.750  0.00  0.00    -0.144 SA
BRANCH  15  16
ATOM     16  C5   11 d          -0.514  45.198  56.501  0.00  0.00     0.187 C 
BRANCH  16  17
ATOM     17  C6   11 d          -0.332  46.416  57.354  0.00  0.00     0.182 C 
ATOM     18  O2   11 d          -1.266  47.332  57.408  0.00  0.00    -0.647 OA
ATOM     19  O3   11 d           0.810  46.623  57.956  0.00  0.00    -0.647 OA
ENDBRANCH  16  17
ENDBRANCH  15  16
ENDBRANCH   6  15
TORSDOF 3
ENDMDL
MODEL 7
REMARK VINA RESULT:      -6.5      1.806      2.962
REMARK  3 active torsions:
REMARK  status: ('A' for Active; 'I' for Inactive)
REMARK    1  A    between atoms: C4_6  and  S1_7 
REMARK    2  A    between atoms: S1_7  and  C5_8 
REMARK    3  A    between atoms: C5_8  and  C6_9 
ROOT
ATOM      1  C1   11 d           5.562  44.215  51.555  0.00  0.00     0.245 A 
ATOM      2  N1   11 d           4.485  43.301  51.382  0.00  0.00    -0.251 N 
ATOM      3  C2   11 d           3.738  43.430  52.582  0.00  0.00     0.232 A 
ATOM      4  O1   11 d           2.671  42.778  52.851  0.00  0.00    -0.273 OA
ATOM      5  C3   11 d           4.297  44.410  53.554  0.00  0.00     0.128 A 
ATOM      6  C4   11 d           5.544  44.956  52.857  0.00  0.00     0.149 A 
ATOM      7  C7   11 d           4.204  42.412  50.208  0.00  0.00     0.045 A 
ATOM      8  C8   11 d           3.082  41.542  50.183  0.00  0.00     0.032 A 
ATOM      9  C9   11 d           2.819  40.708  49.085  0.00  0.00     0.026 A 
ATOM     10  C10  11 d           3.668  40.716  47.974  0.00  0.00     0.034 A 
ATOM     11 Cl1   11 d           3.334  39.658  46.583  0.00  0.00    -0.084 Cl
ATOM     12  C11  11 d           4.781  41.562  47.966  0.00  0.00     0.026 A 
ATOM     13  C12  11 d           5.045  42.396  49.063  0.00  0.00     0.032 A 
ATOM     14  O4   11 d           6.493  44.403  50.697  0.00  0.00    -0.271 OA
ENDROOT
BRANCH   6  15
ATOM     15  S1   11 d           5.414  46.782  52.624  0.00  0.00    -0.144 SA
BRANCH  15  16
ATOM     16  C5   11 d           5.144  47.216  54.398  0.00  0.00     0.187 C 
BRANCH  16  17
ATOM     17  C6   11 d           5.586  48.608  54.726  0.00  0.00     0.182 C 
ATOM     18  O2   11 d           6.844  48.859  54.992  0.00  0.00    -0.647 OA
ATOM     19  O3   11 d           4.697  49.558  54.861  0.00  0.00    -0.647 OA
ENDBRANCH  16  17
ENDBRANCH  15  16
ENDBRANCH   6  15
TORSDOF 3
ENDMDL
MODEL 8
REMARK VINA RESULT:      -6.4      4.394      6.300
REMARK  3 active torsions:
REMARK  status: ('A' for Active; 'I' for Inactive)
REMARK    1  A    between atoms: C4_6  and  S1_7 
REMARK    2  A    between atoms: S1_7  and  C5_8 
REMARK    3  A    between atoms: C5_8  and  C6_9 
ROOT
ATOM      1  C1   11 d           3.117  44.922  53.558  0.00  0.00     0.245 A 
ATOM      2  N1   11 d           4.021  44.729  52.477  0.00  0.00    -0.251 N 
ATOM      3  C2   11 d           3.328  43.838  51.615  0.00  0.00     0.232 A 
ATOM      4  O1   11 d           3.785  43.393  50.506  0.00  0.00    -0.273 OA
ATOM      5  C3   11 d           1.982  43.430  52.102  0.00  0.00     0.128 A 
ATOM      6  C4   11 d           1.826  44.171  53.431  0.00  0.00     0.149 A 
ATOM      7  C7   11 d           5.382  45.326  52.289  0.00  0.00     0.045 A 
ATOM      8  C8   11 d           6.176  45.032  51.149  0.00  0.00     0.032 A 
ATOM      9  C9   11 d           7.452  45.590  50.974  0.00  0.00     0.026 A 
ATOM     10  C10  11 d           7.978  46.461  51.932  0.00  0.00     0.034 A 
ATOM     11 Cl1   11 d           9.596  47.167  51.709  0.00  0.00    -0.084 Cl
ATOM     12  C11  11 d           7.223  46.773  53.066  0.00  0.00     0.026 A 
ATOM     13  C12  11 d           5.947  46.216  53.242  0.00  0.00     0.032 A 
ATOM     14  O4   11 d           3.358  45.656  54.578  0.00  0.00    -0.271 OA
ENDROOT
BRANCH   6  15
ATOM     15  S1   11 d           0.362  45.294  53.383  0.00  0.00    -0.144 SA
BRANCH  15  16
ATOM     16  C5   11 d          -0.873  44.031  52.847  0.00  0.00     0.187 C 
BRANCH  16  17
ATOM     17  C6   11 d          -1.180  43.032  53.919  0.00  0.00     0.182 C 
ATOM     18  O2   11 d          -0.852  41.774  53.766  0.00  0.00    -0.647 OA
ATOM     19  O3   11 d          -1.881  43.394  54.963  0.00  0.00    -0.647 OA
ENDBRANCH  16  17
ENDBRANCH  15  16
ENDBRANCH   6  15
TORSDOF 3
ENDMDL
MODEL 9
REMARK VINA RESULT:      -6.4      4.482      6.226
REMARK  3 active torsions:
REMARK  status: ('A' for Active; 'I' for Inactive)
REMARK    1  A    between atoms: C4_6  and  S1_7 
REMARK    2  A    between atoms: S1_7  and  C5_8 
REMARK    3  A    between atoms: C5_8  and  C6_9 
ROOT
ATOM      1  C1   11 d           3.070  45.119  52.034  0.00  0.00     0.245 A 
ATOM      2  N1   11 d           4.006  46.033  52.594  0.00  0.00    -0.251 N 
ATOM      3  C2   11 d           3.223  46.810  53.488  0.00  0.00     0.232 A 
ATOM      4  O1   11 d           3.673  47.765  54.210  0.00  0.00    -0.273 OA
ATOM      5  C3   11 d           1.782  46.435  53.533  0.00  0.00     0.128 A 
ATOM      6  C4   11 d           1.669  45.274  52.543  0.00  0.00     0.149 A 
ATOM      7  C7   11 d           5.472  46.148  52.309  0.00  0.00     0.045 A 
ATOM      8  C8   11 d           6.283  47.123  52.948  0.00  0.00     0.032 A 
ATOM      9  C9   11 d           7.656  47.232  52.681  0.00  0.00     0.026 A 
ATOM     10  C10  11 d           8.267  46.370  51.766  0.00  0.00     0.034 A 
ATOM     11 Cl1   11 d          10.008  46.510  51.428  0.00  0.00    -0.084 Cl
ATOM     12  C11  11 d           7.499  45.397  51.120  0.00  0.00     0.026 A 
ATOM     13  C12  11 d           6.125  45.288  51.386  0.00  0.00     0.032 A 
ATOM     14  O4   11 d           3.362  44.235  51.156  0.00  0.00    -0.271 OA
ENDROOT
BRANCH   6  15
ATOM     15  S1   11 d           1.057  43.753  53.390  0.00  0.00    -0.144 SA
BRANCH  15  16
ATOM     16  C5   11 d           0.384  44.588  54.893  0.00  0.00     0.187 C 
BRANCH  16  17
ATOM     17  C6   11 d          -1.112  44.625  54.912  0.00  0.00     0.182 C 
ATOM     18  O2   11 d          -1.778  44.003  55.853  0.00  0.00    -0.647 OA
ATOM     19  O3   11 d          -1.762  45.182  53.923  0.00  0.00    -0.647 OA
ENDBRANCH  16  17
ENDBRANCH  15  16
ENDBRANCH   6  15
TORSDOF 3
ENDMDL
MODEL 10
REMARK VINA RESULT:      -6.3      3.733      5.052
REMARK  3 active torsions:
REMARK  status: ('A' for Active; 'I' for Inactive)
REMARK    1  A    between atoms: C4_6  and  S1_7 
REMARK    2  A    between atoms: S1_7  and  C5_8 
REMARK    3  A    between atoms: C5_8  and  C6_9 
ROOT
ATOM      1  C1   11 d           4.932  44.672  53.085  0.00  0.00     0.245 A 
ATOM      2  N1   11 d           3.848  45.123  53.887  0.00  0.00    -0.251 N 
ATOM      3  C2   11 d           4.419  46.158  54.673  0.00  0.00     0.232 A 
ATOM      4  O1   11 d           3.785  46.846  55.546  0.00  0.00    -0.273 OA
ATOM      5  C3   11 d           5.864  46.404  54.413  0.00  0.00     0.128 A 
ATOM      6  C4   11 d           6.224  45.393  53.323  0.00  0.00     0.149 A 
ATOM      7  C7   11 d           2.434  44.625  53.899  0.00  0.00     0.045 A 
ATOM      8  C8   11 d           1.456  45.177  54.769  0.00  0.00     0.032 A 
ATOM      9  C9   11 d           0.133  44.710  54.782  0.00  0.00     0.026 A 
ATOM     10  C10  11 d          -0.259  43.676  53.926  0.00  0.00     0.034 A 
ATOM     11 Cl1   11 d          -1.937  43.084  53.944  0.00  0.00    -0.084 Cl
ATOM     12  C11  11 d           0.679  43.111  53.056  0.00  0.00     0.026 A 
ATOM     13  C12  11 d           2.003  43.577  53.043  0.00  0.00     0.032 A 
ATOM     14  O4   11 d           4.851  43.722  52.231  0.00  0.00    -0.271 OA
ENDROOT
BRANCH   6  15
ATOM     15  S1   11 d           6.836  46.256  51.810  0.00  0.00    -0.144 SA
BRANCH  15  16
ATOM     16  C5   11 d           7.758  47.600  52.676  0.00  0.00     0.187 C 
BRANCH  16  17
ATOM     17  C6   11 d           9.218  47.300  52.820  0.00  0.00     0.182 C 
ATOM     18  O2   11 d           9.854  47.616  53.920  0.00  0.00    -0.647 OA
ATOM     19  O3   11 d           9.887  46.825  51.802  0.00  0.00    -0.647 OA
ENDBRANCH  16  17
ENDBRANCH  15  16
ENDBRANCH   6  15
TORSDOF 3
ENDMDL
