MODEL 1
REMARK VINA RESULT:      -9.1      0.000      0.000
REMARK  7 active torsions:
REMARK  status: ('A' for Active; 'I' for Inactive)
REMARK    1  A    between atoms: C1_1  and  C2_2 
REMARK    2  A    between atoms: C1_1  and  C12_13 
REMARK    3  A    between atoms: C12_13  and  N1_14 
REMARK    4  A    between atoms: C15_17  and  C18_20 
REMARK    5  A    between atoms: C18_20  and  C19_21 
REMARK    6  A    between atoms: C19_21  and  S1_22 
REMARK    7  A    between atoms: S1_22  and  C20_23 
ROOT
ATOM      1  N1   11 d         -10.664 207.936 114.088  0.00  0.00    -0.359 N 
ATOM      2  C13  11 d         -10.030 208.612 115.108  0.00  0.00     0.091 A 
ATOM      3  C14  11 d          -8.778 209.209 114.922  0.00  0.00     0.024 A 
ATOM      4  C15  11 d          -8.144 209.140 113.670  0.00  0.00    -0.055 A 
ATOM      5  C16  11 d          -8.796 208.449 112.633  0.00  0.00     0.024 A 
ATOM      6  C17  11 d         -10.050 207.859 112.856  0.00  0.00     0.091 A 
ENDROOT
BRANCH   1   7
ATOM      7  C12  11 d         -11.981 207.330 114.432  0.00  0.00     0.206 C 
BRANCH   7   8
ATOM      8  C1   11 d         -13.338 207.795 113.901  0.00  0.00     0.153 C 
ATOM      9  O1   11 d         -13.855 208.862 114.316  0.00  0.00    -0.295 OA
BRANCH   8  10
ATOM     10  C2   11 d         -14.074 207.005 112.804  0.00  0.00     0.023 C 
ATOM     11  C3   11 d         -13.236 206.964 111.486  0.00  0.00     0.022 C 
ATOM     12  C4   11 d         -14.011 206.244 110.359  0.00  0.00    -0.013 C 
ATOM     13  C5   11 d         -15.338 206.995 110.093  0.00  0.00     0.009 C 
ATOM     14  C11  11 d         -14.316 204.791 110.788  0.00  0.00     0.009 C 
ATOM     15  C6   11 d         -16.195 207.009 111.380  0.00  0.00    -0.013 C 
ATOM     16  C7   11 d         -15.420 207.731 112.509  0.00  0.00     0.022 C 
ATOM     17  C8   11 d         -16.499 205.555 111.807  0.00  0.00     0.009 C 
ATOM     18  C9   11 d         -15.172 204.806 112.074  0.00  0.00    -0.013 C 
ATOM     19  C10  11 d         -14.396 205.527 113.201  0.00  0.00     0.022 C 
ENDBRANCH   8  10
ENDBRANCH   7   8
ENDBRANCH   1   7
BRANCH   4  20
ATOM     20  C18  11 d          -6.743 209.697 113.504  0.00  0.00     0.049 C 
BRANCH  20  21
ATOM     21  C19  11 d          -5.667 208.648 113.190  0.00  0.00     0.084 C 
BRANCH  21  22
ATOM     22  S1   11 d          -4.178 208.926 114.238  0.00  0.00    -0.130 SA
BRANCH  22  23
ATOM     23  C20  11 d          -5.026 208.736 115.829  0.00  0.00     0.000 A 
ATOM     24  C21  11 d          -5.119 209.837 116.698  0.00  0.00     0.018 A 
ATOM     25  C22  11 d          -5.787 209.711 117.926  0.00  0.00     0.001 A 
ATOM     26  C23  11 d          -6.364 208.486 118.289  0.00  0.00     0.000 A 
ATOM     27  C24  11 d          -6.270 207.383 117.426  0.00  0.00     0.001 A 
ATOM     28  C25  11 d          -5.610 207.509 116.194  0.00  0.00     0.018 A 
ENDBRANCH  22  23
ENDBRANCH  21  22
ENDBRANCH  20  21
ENDBRANCH   4  20
TORSDOF 7
ENDMDL
MODEL 2
REMARK VINA RESULT:      -9.0      0.841      1.943
REMARK  7 active torsions:
REMARK  status: ('A' for Active; 'I' for Inactive)
REMARK    1  A    between atoms: C1_1  and  C2_2 
REMARK    2  A    between atoms: C1_1  and  C12_13 
REMARK    3  A    between atoms: C12_13  and  N1_14 
REMARK    4  A    between atoms: C15_17  and  C18_20 
REMARK    5  A    between atoms: C18_20  and  C19_21 
REMARK    6  A    between atoms: C19_21  and  S1_22 
REMARK    7  A    between atoms: S1_22  and  C20_23 
ROOT
ATOM      1  N1   11 d         -10.618 208.446 114.224  0.00  0.00    -0.359 N 
ATOM      2  C13  11 d         -10.074 208.102 113.006  0.00  0.00     0.091 A 
ATOM      3  C14  11 d          -8.735 208.375 112.700  0.00  0.00     0.024 A 
ATOM      4  C15  11 d          -7.910 209.001 113.649  0.00  0.00    -0.055 A 
ATOM      5  C16  11 d          -8.471 209.350 114.890  0.00  0.00     0.024 A 
ATOM      6  C17  11 d          -9.819 209.064 115.162  0.00  0.00     0.091 A 
ENDROOT
BRANCH   1   7
ATOM      7  C12  11 d         -12.060 208.117 114.406  0.00  0.00     0.206 C 
BRANCH   7   8
ATOM      8  C1   11 d         -12.696 206.749 114.154  0.00  0.00     0.153 C 
ATOM      9  O1   11 d         -12.501 205.797 114.949  0.00  0.00    -0.295 OA
BRANCH   8  10
ATOM     10  C2   11 d         -13.639 206.520 112.958  0.00  0.00     0.023 C 
ATOM     11  C3   11 d         -14.563 205.284 113.203  0.00  0.00     0.022 C 
ATOM     12  C4   11 d         -15.450 205.003 111.968  0.00  0.00    -0.013 C 
ATOM     13  C5   11 d         -14.546 204.726 110.743  0.00  0.00     0.009 C 
ATOM     14  C11  11 d         -16.344 206.231 111.684  0.00  0.00     0.009 C 
ATOM     15  C6   11 d         -13.653 205.957 110.466  0.00  0.00    -0.013 C 
ATOM     16  C7   11 d         -12.763 206.239 111.701  0.00  0.00     0.022 C 
ATOM     17  C8   11 d         -14.549 207.184 110.182  0.00  0.00     0.009 C 
ATOM     18  C9   11 d         -15.452 207.461 111.408  0.00  0.00    -0.013 C 
ATOM     19  C10  11 d         -14.564 207.741 112.642  0.00  0.00     0.022 C 
ENDBRANCH   8  10
ENDBRANCH   7   8
ENDBRANCH   1   7
BRANCH   4  20
ATOM     20  C18  11 d          -6.492 209.389 113.275  0.00  0.00     0.049 C 
BRANCH  20  21
ATOM     21  C19  11 d          -5.494 208.223 113.242  0.00  0.00     0.084 C 
BRANCH  21  22
ATOM     22  S1   11 d          -4.030 208.604 114.292  0.00  0.00    -0.130 SA
BRANCH  22  23
ATOM     23  C20  11 d          -4.927 208.632 115.867  0.00  0.00     0.000 A 
ATOM     24  C21  11 d          -4.972 209.822 116.613  0.00  0.00     0.018 A 
ATOM     25  C22  11 d          -5.677 209.866 117.827  0.00  0.00     0.001 A 
ATOM     26  C23  11 d          -6.338 208.722 118.297  0.00  0.00     0.000 A 
ATOM     27  C24  11 d          -6.290 207.531 117.556  0.00  0.00     0.001 A 
ATOM     28  C25  11 d          -5.594 207.488 116.339  0.00  0.00     0.018 A 
ENDBRANCH  22  23
ENDBRANCH  21  22
ENDBRANCH  20  21
ENDBRANCH   4  20
TORSDOF 7
ENDMDL
MODEL 3
REMARK VINA RESULT:      -8.8      2.203      3.918
REMARK  7 active torsions:
REMARK  status: ('A' for Active; 'I' for Inactive)
REMARK    1  A    between atoms: C1_1  and  C2_2 
REMARK    2  A    between atoms: C1_1  and  C12_13 
REMARK    3  A    between atoms: C12_13  and  N1_14 
REMARK    4  A    between atoms: C15_17  and  C18_20 
REMARK    5  A    between atoms: C18_20  and  C19_21 
REMARK    6  A    between atoms: C19_21  and  S1_22 
REMARK    7  A    between atoms: S1_22  and  C20_23 
ROOT
ATOM      1  N1   11 d         -10.619 208.423 114.132  0.00  0.00    -0.359 N 
ATOM      2  C13  11 d          -9.883 208.912 115.190  0.00  0.00     0.091 A 
ATOM      3  C14  11 d          -8.525 209.224 115.054  0.00  0.00     0.024 A 
ATOM      4  C15  11 d          -7.884 209.054 113.816  0.00  0.00    -0.055 A 
ATOM      5  C16  11 d          -8.640 208.554 112.740  0.00  0.00     0.024 A 
ATOM      6  C17  11 d          -9.999 208.249 112.913  0.00  0.00     0.091 A 
ENDROOT
BRANCH   1   7
ATOM      7  C12  11 d         -12.046 208.112 114.424  0.00  0.00     0.206 C 
BRANCH   7   8
ATOM      8  C1   11 d         -12.729 206.765 114.184  0.00  0.00     0.153 C 
ATOM      9  O1   11 d         -12.627 205.837 115.025  0.00  0.00    -0.295 OA
BRANCH   8  10
ATOM     10  C2   11 d         -13.606 206.530 112.940  0.00  0.00     0.023 C 
ATOM     11  C3   11 d         -14.610 207.709 112.733  0.00  0.00     0.022 C 
ATOM     12  C4   11 d         -15.548 207.434 111.535  0.00  0.00    -0.013 C 
ATOM     13  C5   11 d         -16.342 206.132 111.798  0.00  0.00     0.009 C 
ATOM     14  C11  11 d         -14.708 207.277 110.248  0.00  0.00     0.009 C 
ATOM     15  C6   11 d         -15.361 204.949 111.966  0.00  0.00    -0.013 C 
ATOM     16  C7   11 d         -14.422 205.222 113.166  0.00  0.00     0.022 C 
ATOM     17  C8   11 d         -14.522 204.794 110.677  0.00  0.00     0.009 C 
ATOM     18  C9   11 d         -13.727 206.096 110.416  0.00  0.00    -0.013 C 
ATOM     19  C10  11 d         -12.791 206.371 111.615  0.00  0.00     0.022 C 
ENDBRANCH   8  10
ENDBRANCH   7   8
ENDBRANCH   1   7
BRANCH   4  20
ATOM     20  C18  11 d          -6.391 209.293 113.702  0.00  0.00     0.049 C 
BRANCH  20  21
ATOM     21  C19  11 d          -5.676 208.412 112.667  0.00  0.00     0.084 C 
BRANCH  21  22
ATOM     22  S1   11 d          -4.017 207.912 113.290  0.00  0.00    -0.130 SA
BRANCH  22  23
ATOM     23  C20  11 d          -3.131 208.215 111.738  0.00  0.00     0.000 A 
ATOM     24  C21  11 d          -3.778 207.969 110.515  0.00  0.00     0.018 A 
ATOM     25  C22  11 d          -3.113 208.214 109.303  0.00  0.00     0.001 A 
ATOM     26  C23  11 d          -1.800 208.707 109.311  0.00  0.00     0.000 A 
ATOM     27  C24  11 d          -1.149 208.949 110.530  0.00  0.00     0.001 A 
ATOM     28  C25  11 d          -1.815 208.713 111.742  0.00  0.00     0.018 A 
ENDBRANCH  22  23
ENDBRANCH  21  22
ENDBRANCH  20  21
ENDBRANCH   4  20
TORSDOF 7
ENDMDL
MODEL 4
REMARK VINA RESULT:      -8.7      4.695      7.666
REMARK  7 active torsions:
REMARK  status: ('A' for Active; 'I' for Inactive)
REMARK    1  A    between atoms: C1_1  and  C2_2 
REMARK    2  A    between atoms: C1_1  and  C12_13 
REMARK    3  A    between atoms: C12_13  and  N1_14 
REMARK    4  A    between atoms: C15_17  and  C18_20 
REMARK    5  A    between atoms: C18_20  and  C19_21 
REMARK    6  A    between atoms: C19_21  and  S1_22 
REMARK    7  A    between atoms: S1_22  and  C20_23 
ROOT
ATOM      1  N1   11 d         -12.831 207.746 116.073  0.00  0.00    -0.359 N 
ATOM      2  C13  11 d         -13.987 207.105 116.463  0.00  0.00     0.091 A 
ATOM      3  C14  11 d         -14.093 206.485 117.714  0.00  0.00     0.024 A 
ATOM      4  C15  11 d         -13.013 206.520 118.611  0.00  0.00    -0.055 A 
ATOM      5  C16  11 d         -11.836 207.177 118.208  0.00  0.00     0.024 A 
ATOM      6  C17  11 d         -11.763 207.784 116.945  0.00  0.00     0.091 A 
ENDROOT
BRANCH   1   7
ATOM      7  C12  11 d         -12.849 208.341 114.708  0.00  0.00     0.206 C 
BRANCH   7   8
ATOM      8  C1   11 d         -12.506 207.603 113.413  0.00  0.00     0.153 C 
ATOM      9  O1   11 d         -11.311 207.466 113.051  0.00  0.00    -0.295 OA
BRANCH   8  10
ATOM     10  C2   11 d         -13.608 206.955 112.553  0.00  0.00     0.023 C 
ATOM     11  C3   11 d         -13.965 205.529 113.083  0.00  0.00     0.022 C 
ATOM     12  C4   11 d         -15.009 204.845 112.171  0.00  0.00    -0.013 C 
ATOM     13  C5   11 d         -14.434 204.725 110.739  0.00  0.00     0.009 C 
ATOM     14  C11  11 d         -16.301 205.691 112.141  0.00  0.00     0.009 C 
ATOM     15  C6   11 d         -14.112 206.133 110.187  0.00  0.00    -0.013 C 
ATOM     16  C7   11 d         -13.066 206.818 111.099  0.00  0.00     0.022 C 
ATOM     17  C8   11 d         -15.407 206.977 110.158  0.00  0.00     0.009 C 
ATOM     18  C9   11 d         -15.980 207.098 111.590  0.00  0.00    -0.013 C 
ATOM     19  C10  11 d         -14.934 207.781 112.502  0.00  0.00     0.022 C 
ENDBRANCH   8  10
ENDBRANCH   7   8
ENDBRANCH   1   7
BRANCH   4  20
ATOM     20  C18  11 d         -13.096 205.759 119.920  0.00  0.00     0.049 C 
BRANCH  20  21
ATOM     21  C19  11 d         -14.487 205.748 120.570  0.00  0.00     0.084 C 
BRANCH  21  22
ATOM     22  S1   11 d         -14.883 204.065 121.205  0.00  0.00    -0.130 SA
BRANCH  22  23
ATOM     23  C20  11 d         -15.974 203.596 119.834  0.00  0.00     0.000 A 
ATOM     24  C21  11 d         -15.410 203.178 118.617  0.00  0.00     0.018 A 
ATOM     25  C22  11 d         -16.239 202.795 117.550  0.00  0.00     0.001 A 
ATOM     26  C23  11 d         -17.633 202.829 117.698  0.00  0.00     0.000 A 
ATOM     27  C24  11 d         -18.200 203.251 118.911  0.00  0.00     0.001 A 
ATOM     28  C25  11 d         -17.372 203.626 119.980  0.00  0.00     0.018 A 
ENDBRANCH  22  23
ENDBRANCH  21  22
ENDBRANCH  20  21
ENDBRANCH   4  20
TORSDOF 7
ENDMDL
MODEL 5
REMARK VINA RESULT:      -8.6      5.784      8.638
REMARK  7 active torsions:
REMARK  status: ('A' for Active; 'I' for Inactive)
REMARK    1  A    between atoms: C1_1  and  C2_2 
REMARK    2  A    between atoms: C1_1  and  C12_13 
REMARK    3  A    between atoms: C12_13  and  N1_14 
REMARK    4  A    between atoms: C15_17  and  C18_20 
REMARK    5  A    between atoms: C18_20  and  C19_21 
REMARK    6  A    between atoms: C19_21  and  S1_22 
REMARK    7  A    between atoms: S1_22  and  C20_23 
ROOT
ATOM      1  N1   11 d         -13.083 206.224 116.485  0.00  0.00    -0.359 N 
ATOM      2  C13  11 d         -13.612 205.011 116.871  0.00  0.00     0.091 A 
ATOM      3  C14  11 d         -14.169 204.828 118.142  0.00  0.00     0.024 A 
ATOM      4  C15  11 d         -14.212 205.897 119.053  0.00  0.00    -0.055 A 
ATOM      5  C16  11 d         -13.672 207.132 118.653  0.00  0.00     0.024 A 
ATOM      6  C17  11 d         -13.117 207.279 117.371  0.00  0.00     0.091 A 
ENDROOT
BRANCH   1   7
ATOM      7  C12  11 d         -12.503 206.270 115.114  0.00  0.00     0.206 C 
BRANCH   7   8
ATOM      8  C1   11 d         -12.924 207.235 114.004  0.00  0.00     0.153 C 
ATOM      9  O1   11 d         -12.471 208.406 113.968  0.00  0.00    -0.295 OA
BRANCH   8  10
ATOM     10  C2   11 d         -13.861 206.780 112.869  0.00  0.00     0.023 C 
ATOM     11  C3   11 d         -14.301 205.294 113.070  0.00  0.00     0.022 C 
ATOM     12  C4   11 d         -15.172 204.811 111.888  0.00  0.00    -0.013 C 
ATOM     13  C5   11 d         -14.361 204.927 110.575  0.00  0.00     0.009 C 
ATOM     14  C11  11 d         -16.442 205.686 111.791  0.00  0.00     0.009 C 
ATOM     15  C6   11 d         -13.952 206.400 110.345  0.00  0.00    -0.013 C 
ATOM     16  C7   11 d         -13.078 206.885 111.527  0.00  0.00     0.022 C 
ATOM     17  C8   11 d         -15.224 207.274 110.248  0.00  0.00     0.009 C 
ATOM     18  C9   11 d         -16.033 207.158 111.562  0.00  0.00    -0.013 C 
ATOM     19  C10  11 d         -15.160 207.640 112.743  0.00  0.00     0.022 C 
ENDBRANCH   8  10
ENDBRANCH   7   8
ENDBRANCH   1   7
BRANCH   4  20
ATOM     20  C18  11 d         -14.721 205.665 120.462  0.00  0.00     0.049 C 
BRANCH  20  21
ATOM     21  C19  11 d         -14.818 204.190 120.876  0.00  0.00     0.084 C 
BRANCH  21  22
ATOM     22  S1   11 d         -15.855 204.017 122.389  0.00  0.00    -0.130 SA
BRANCH  22  23
ATOM     23  C20  11 d         -17.449 204.248 121.555  0.00  0.00     0.000 A 
ATOM     24  C21  11 d         -17.741 203.494 120.406  0.00  0.00     0.018 A 
ATOM     25  C22  11 d         -18.977 203.648 119.758  0.00  0.00     0.001 A 
ATOM     26  C23  11 d         -19.923 204.556 120.256  0.00  0.00     0.000 A 
ATOM     27  C24  11 d         -19.631 205.314 121.401  0.00  0.00     0.001 A 
ATOM     28  C25  11 d         -18.400 205.155 122.055  0.00  0.00     0.018 A 
ENDBRANCH  22  23
ENDBRANCH  21  22
ENDBRANCH  20  21
ENDBRANCH   4  20
TORSDOF 7
ENDMDL
MODEL 6
REMARK VINA RESULT:      -8.6      5.858      8.712
REMARK  7 active torsions:
REMARK  status: ('A' for Active; 'I' for Inactive)
REMARK    1  A    between atoms: C1_1  and  C2_2 
REMARK    2  A    between atoms: C1_1  and  C12_13 
REMARK    3  A    between atoms: C12_13  and  N1_14 
REMARK    4  A    between atoms: C15_17  and  C18_20 
REMARK    5  A    between atoms: C18_20  and  C19_21 
REMARK    6  A    between atoms: C19_21  and  S1_22 
REMARK    7  A    between atoms: S1_22  and  C20_23 
ROOT
ATOM      1  N1   11 d         -13.604 207.044 116.405  0.00  0.00    -0.359 N 
ATOM      2  C13  11 d         -13.661 207.730 117.599  0.00  0.00     0.091 A 
ATOM      3  C14  11 d         -13.855 207.065 118.816  0.00  0.00     0.024 A 
ATOM      4  C15  11 d         -13.983 205.666 118.841  0.00  0.00    -0.055 A 
ATOM      5  C16  11 d         -13.924 204.972 117.619  0.00  0.00     0.024 A 
ATOM      6  C17  11 d         -13.732 205.671 116.417  0.00  0.00     0.091 A 
ENDROOT
BRANCH   1   7
ATOM      7  C12  11 d         -13.417 207.880 115.187  0.00  0.00     0.206 C 
BRANCH   7   8
ATOM      8  C1   11 d         -12.818 207.399 113.864  0.00  0.00     0.153 C 
ATOM      9  O1   11 d         -11.576 207.420 113.679  0.00  0.00    -0.295 OA
BRANCH   8  10
ATOM     10  C2   11 d         -13.712 206.820 112.751  0.00  0.00     0.023 C 
ATOM     11  C3   11 d         -12.979 206.851 111.372  0.00  0.00     0.022 C 
ATOM     12  C4   11 d         -13.906 206.349 110.241  0.00  0.00    -0.013 C 
ATOM     13  C5   11 d         -15.160 207.254 110.170  0.00  0.00     0.009 C 
ATOM     14  C11  11 d         -14.335 204.894 110.533  0.00  0.00     0.009 C 
ATOM     15  C6   11 d         -15.916 207.203 111.518  0.00  0.00    -0.013 C 
ATOM     16  C7   11 d         -14.989 207.706 112.650  0.00  0.00     0.022 C 
ATOM     17  C8   11 d         -16.344 205.746 111.807  0.00  0.00     0.009 C 
ATOM     18  C9   11 d         -15.090 204.842 111.879  0.00  0.00    -0.013 C 
ATOM     19  C10  11 d         -14.163 205.345 113.010  0.00  0.00     0.022 C 
ENDBRANCH   8  10
ENDBRANCH   7   8
ENDBRANCH   1   7
BRANCH   4  20
ATOM     20  C18  11 d         -14.297 204.962 120.147  0.00  0.00     0.049 C 
BRANCH  20  21
ATOM     21  C19  11 d         -15.434 203.933 120.065  0.00  0.00     0.084 C 
BRANCH  21  22
ATOM     22  S1   11 d         -16.121 203.604 121.742  0.00  0.00    -0.130 SA
BRANCH  22  23
ATOM     23  C20  11 d         -17.865 203.693 121.254  0.00  0.00     0.000 A 
ATOM     24  C21  11 d         -18.210 203.546 119.900  0.00  0.00     0.018 A 
ATOM     25  C22  11 d         -19.557 203.596 119.507  0.00  0.00     0.001 A 
ATOM     26  C23  11 d         -20.562 203.792 120.467  0.00  0.00     0.000 A 
ATOM     27  C24  11 d         -20.219 203.944 121.819  0.00  0.00     0.001 A 
ATOM     28  C25  11 d         -18.874 203.886 122.214  0.00  0.00     0.018 A 
ENDBRANCH  22  23
ENDBRANCH  21  22
ENDBRANCH  20  21
ENDBRANCH   4  20
TORSDOF 7
ENDMDL
MODEL 7
REMARK VINA RESULT:      -8.4      1.751      2.827
REMARK  7 active torsions:
REMARK  status: ('A' for Active; 'I' for Inactive)
REMARK    1  A    between atoms: C1_1  and  C2_2 
REMARK    2  A    between atoms: C1_1  and  C12_13 
REMARK    3  A    between atoms: C12_13  and  N1_14 
REMARK    4  A    between atoms: C15_17  and  C18_20 
REMARK    5  A    between atoms: C18_20  and  C19_21 
REMARK    6  A    between atoms: C19_21  and  S1_22 
REMARK    7  A    between atoms: S1_22  and  C20_23 
ROOT
ATOM      1  N1   11 d         -11.557 207.954 115.865  0.00  0.00    -0.359 N 
ATOM      2  C13  11 d         -11.748 207.153 116.970  0.00  0.00     0.091 A 
ATOM      3  C14  11 d         -10.787 207.064 117.984  0.00  0.00     0.024 A 
ATOM      4  C15  11 d          -9.601 207.812 117.897  0.00  0.00    -0.055 A 
ATOM      5  C16  11 d          -9.411 208.628 116.767  0.00  0.00     0.024 A 
ATOM      6  C17  11 d         -10.395 208.690 115.768  0.00  0.00     0.091 A 
ENDROOT
BRANCH   1   7
ATOM      7  C12  11 d         -12.651 207.935 114.854  0.00  0.00     0.206 C 
BRANCH   7   8
ATOM      8  C1   11 d         -12.473 207.666 113.359  0.00  0.00     0.153 C 
ATOM      9  O1   11 d         -11.413 207.997 112.771  0.00  0.00    -0.295 OA
BRANCH   8  10
ATOM     10  C2   11 d         -13.557 206.931 112.550  0.00  0.00     0.023 C 
ATOM     11  C3   11 d         -13.098 206.707 111.074  0.00  0.00     0.022 C 
ATOM     12  C4   11 d         -14.219 206.045 110.239  0.00  0.00    -0.013 C 
ATOM     13  C5   11 d         -15.469 206.958 110.250  0.00  0.00     0.009 C 
ATOM     14  C11  11 d         -14.575 204.672 110.852  0.00  0.00     0.009 C 
ATOM     15  C6   11 d         -15.957 207.155 111.704  0.00  0.00    -0.013 C 
ATOM     16  C7   11 d         -14.836 207.819 112.539  0.00  0.00     0.022 C 
ATOM     17  C8   11 d         -16.313 205.780 112.314  0.00  0.00     0.009 C 
ATOM     18  C9   11 d         -15.062 204.869 112.304  0.00  0.00    -0.013 C 
ATOM     19  C10  11 d         -13.942 205.533 113.138  0.00  0.00     0.022 C 
ENDBRANCH   8  10
ENDBRANCH   7   8
ENDBRANCH   1   7
BRANCH   4  20
ATOM     20  C18  11 d          -8.519 207.632 118.944  0.00  0.00     0.049 C 
BRANCH  20  21
ATOM     21  C19  11 d          -7.163 207.167 118.395  0.00  0.00     0.084 C 
BRANCH  21  22
ATOM     22  S1   11 d          -5.916 208.515 118.545  0.00  0.00    -0.130 SA
BRANCH  22  23
ATOM     23  C20  11 d          -5.837 208.899 116.775  0.00  0.00     0.000 A 
ATOM     24  C21  11 d          -5.738 210.240 116.365  0.00  0.00     0.018 A 
ATOM     25  C22  11 d          -5.658 210.555 114.999  0.00  0.00     0.001 A 
ATOM     26  C23  11 d          -5.677 209.531 114.040  0.00  0.00     0.000 A 
ATOM     27  C24  11 d          -5.781 208.192 114.447  0.00  0.00     0.001 A 
ATOM     28  C25  11 d          -5.852 207.875 115.812  0.00  0.00     0.018 A 
ENDBRANCH  22  23
ENDBRANCH  21  22
ENDBRANCH  20  21
ENDBRANCH   4  20
TORSDOF 7
ENDMDL
MODEL 8
REMARK VINA RESULT:      -8.2      2.023      3.376
REMARK  7 active torsions:
REMARK  status: ('A' for Active; 'I' for Inactive)
REMARK    1  A    between atoms: C1_1  and  C2_2 
REMARK    2  A    between atoms: C1_1  and  C12_13 
REMARK    3  A    between atoms: C12_13  and  N1_14 
REMARK    4  A    between atoms: C15_17  and  C18_20 
REMARK    5  A    between atoms: C18_20  and  C19_21 
REMARK    6  A    between atoms: C19_21  and  S1_22 
REMARK    7  A    between atoms: S1_22  and  C20_23 
ROOT
ATOM      1  N1   11 d         -12.546 206.737 116.636  0.00  0.00    -0.359 N 
ATOM      2  C13  11 d         -11.676 207.615 116.026  0.00  0.00     0.091 A 
ATOM      3  C14  11 d         -10.492 208.025 116.652  0.00  0.00     0.024 A 
ATOM      4  C15  11 d         -10.161 207.530 117.925  0.00  0.00    -0.055 A 
ATOM      5  C16  11 d         -11.052 206.634 118.542  0.00  0.00     0.024 A 
ATOM      6  C17  11 d         -12.232 206.247 117.886  0.00  0.00     0.091 A 
ENDROOT
BRANCH   1   7
ATOM      7  C12  11 d         -13.777 206.405 115.866  0.00  0.00     0.206 C 
BRANCH   7   8
ATOM      8  C1   11 d         -14.435 207.300 114.815  0.00  0.00     0.153 C 
ATOM      9  O1   11 d         -14.808 208.464 115.108  0.00  0.00    -0.295 OA
BRANCH   8  10
ATOM     10  C2   11 d         -14.600 206.826 113.359  0.00  0.00     0.023 C 
ATOM     11  C3   11 d         -14.904 208.029 112.410  0.00  0.00     0.022 C 
ATOM     12  C4   11 d         -15.155 207.543 110.964  0.00  0.00    -0.013 C 
ATOM     13  C5   11 d         -16.359 206.571 110.953  0.00  0.00     0.009 C 
ATOM     14  C11  11 d         -13.897 206.815 110.439  0.00  0.00     0.009 C 
ATOM     15  C6   11 d         -16.055 205.356 111.859  0.00  0.00    -0.013 C 
ATOM     16  C7   11 d         -15.805 205.840 113.307  0.00  0.00     0.022 C 
ATOM     17  C8   11 d         -14.796 204.629 111.332  0.00  0.00     0.009 C 
ATOM     18  C9   11 d         -13.592 205.601 111.344  0.00  0.00    -0.013 C 
ATOM     19  C10  11 d         -13.344 206.087 112.791  0.00  0.00     0.022 C 
ENDBRANCH   8  10
ENDBRANCH   7   8
ENDBRANCH   1   7
BRANCH   4  20
ATOM     20  C18  11 d          -8.933 208.057 118.641  0.00  0.00     0.049 C 
BRANCH  20  21
ATOM     21  C19  11 d          -7.601 207.473 118.149  0.00  0.00     0.084 C 
BRANCH  21  22
ATOM     22  S1   11 d          -6.241 208.693 118.386  0.00  0.00    -0.130 SA
BRANCH  22  23
ATOM     23  C20  11 d          -5.937 208.984 116.622  0.00  0.00     0.000 A 
ATOM     24  C21  11 d          -5.865 207.889 115.745  0.00  0.00     0.018 A 
ATOM     25  C22  11 d          -5.647 208.098 114.374  0.00  0.00     0.001 A 
ATOM     26  C23  11 d          -5.501 209.401 113.877  0.00  0.00     0.000 A 
ATOM     27  C24  11 d          -5.568 210.497 114.751  0.00  0.00     0.001 A 
ATOM     28  C25  11 d          -5.794 210.290 116.121  0.00  0.00     0.018 A 
ENDBRANCH  22  23
ENDBRANCH  21  22
ENDBRANCH  20  21
ENDBRANCH   4  20
TORSDOF 7
ENDMDL
MODEL 9
REMARK VINA RESULT:      -8.2      2.625      3.907
REMARK  7 active torsions:
REMARK  status: ('A' for Active; 'I' for Inactive)
REMARK    1  A    between atoms: C1_1  and  C2_2 
REMARK    2  A    between atoms: C1_1  and  C12_13 
REMARK    3  A    between atoms: C12_13  and  N1_14 
REMARK    4  A    between atoms: C15_17  and  C18_20 
REMARK    5  A    between atoms: C18_20  and  C19_21 
REMARK    6  A    between atoms: C19_21  and  S1_22 
REMARK    7  A    between atoms: S1_22  and  C20_23 
ROOT
ATOM      1  N1   11 d         -12.099 207.583 116.038  0.00  0.00    -0.359 N 
ATOM      2  C13  11 d         -10.955 208.252 116.415  0.00  0.00     0.091 A 
ATOM      3  C14  11 d         -10.227 207.873 117.550  0.00  0.00     0.024 A 
ATOM      4  C15  11 d         -10.651 206.781 118.326  0.00  0.00    -0.055 A 
ATOM      5  C16  11 d         -11.819 206.102 117.935  0.00  0.00     0.024 A 
ATOM      6  C17  11 d         -12.526 206.512 116.793  0.00  0.00     0.091 A 
ENDROOT
BRANCH   1   7
ATOM      7  C12  11 d         -12.785 208.107 114.824  0.00  0.00     0.206 C 
BRANCH   7   8
ATOM      8  C1   11 d         -12.481 207.691 113.383  0.00  0.00     0.153 C 
ATOM      9  O1   11 d         -11.331 207.846 112.902  0.00  0.00    -0.295 OA
BRANCH   8  10
ATOM     10  C2   11 d         -13.554 207.016 112.509  0.00  0.00     0.023 C 
ATOM     11  C3   11 d         -14.877 207.847 112.506  0.00  0.00     0.022 C 
ATOM     12  C4   11 d         -15.981 207.128 111.698  0.00  0.00    -0.013 C 
ATOM     13  C5   11 d         -16.254 205.741 112.330  0.00  0.00     0.009 C 
ATOM     14  C11  11 d         -15.516 206.948 110.236  0.00  0.00     0.009 C 
ATOM     15  C6   11 d         -14.962 204.894 112.303  0.00  0.00    -0.013 C 
ATOM     16  C7   11 d         -13.856 205.612 113.113  0.00  0.00     0.022 C 
ATOM     17  C8   11 d         -14.499 204.715 110.839  0.00  0.00     0.009 C 
ATOM     18  C9   11 d         -14.225 206.102 110.209  0.00  0.00    -0.013 C 
ATOM     19  C10  11 d         -13.121 206.821 111.019  0.00  0.00     0.022 C 
ENDBRANCH   8  10
ENDBRANCH   7   8
ENDBRANCH   1   7
BRANCH   4  20
ATOM     20  C18  11 d          -9.920 206.442 119.610  0.00  0.00     0.049 C 
BRANCH  20  21
ATOM     21  C19  11 d          -8.469 206.939 119.675  0.00  0.00     0.084 C 
BRANCH  21  22
ATOM     22  S1   11 d          -8.320 208.322 120.882  0.00  0.00    -0.130 SA
BRANCH  22  23
ATOM     23  C20  11 d          -7.186 209.325 119.884  0.00  0.00     0.000 A 
ATOM     24  C21  11 d          -6.859 210.624 120.308  0.00  0.00     0.018 A 
ATOM     25  C22  11 d          -5.970 211.408 119.556  0.00  0.00     0.001 A 
ATOM     26  C23  11 d          -5.405 210.895 118.379  0.00  0.00     0.000 A 
ATOM     27  C24  11 d          -5.733 209.599 117.950  0.00  0.00     0.001 A 
ATOM     28  C25  11 d          -6.615 208.812 118.705  0.00  0.00     0.018 A 
ENDBRANCH  22  23
ENDBRANCH  21  22
ENDBRANCH  20  21
ENDBRANCH   4  20
TORSDOF 7
ENDMDL
MODEL 10
REMARK VINA RESULT:      -8.0      7.511     10.500
REMARK  7 active torsions:
REMARK  status: ('A' for Active; 'I' for Inactive)
REMARK    1  A    between atoms: C1_1  and  C2_2 
REMARK    2  A    between atoms: C1_1  and  C12_13 
REMARK    3  A    between atoms: C12_13  and  N1_14 
REMARK    4  A    between atoms: C15_17  and  C18_20 
REMARK    5  A    between atoms: C18_20  and  C19_21 
REMARK    6  A    between atoms: C19_21  and  S1_22 
REMARK    7  A    between atoms: S1_22  and  C20_23 
ROOT
ATOM      1  N1   11 d         -14.964 204.165 118.952  0.00  0.00    -0.359 N 
ATOM      2  C13  11 d         -14.559 205.180 119.791  0.00  0.00     0.091 A 
ATOM      3  C14  11 d         -15.031 205.274 121.106  0.00  0.00     0.024 A 
ATOM      4  C15  11 d         -15.926 204.311 121.603  0.00  0.00    -0.055 A 
ATOM      5  C16  11 d         -16.334 203.277 120.743  0.00  0.00     0.024 A 
ATOM      6  C17  11 d         -15.844 203.216 119.429  0.00  0.00     0.091 A 
ENDROOT
BRANCH   1   7
ATOM      7  C12  11 d         -14.401 204.201 117.574  0.00  0.00     0.206 C 
BRANCH   7   8
ATOM      8  C1   11 d         -13.294 205.139 117.091  0.00  0.00     0.153 C 
ATOM      9  O1   11 d         -12.225 205.254 117.741  0.00  0.00    -0.295 OA
BRANCH   8  10
ATOM     10  C2   11 d         -13.432 205.916 115.769  0.00  0.00     0.023 C 
ATOM     11  C3   11 d         -13.677 207.435 116.036  0.00  0.00     0.022 C 
ATOM     12  C4   11 d         -13.901 208.202 114.713  0.00  0.00    -0.013 C 
ATOM     13  C5   11 d         -15.130 207.610 113.982  0.00  0.00     0.009 C 
ATOM     14  C11  11 d         -12.649 208.061 113.818  0.00  0.00     0.009 C 
ATOM     15  C6   11 d         -14.884 206.115 113.676  0.00  0.00    -0.013 C 
ATOM     16  C7   11 d         -14.661 205.346 115.001  0.00  0.00     0.022 C 
ATOM     17  C8   11 d         -13.632 205.977 112.780  0.00  0.00     0.009 C 
ATOM     18  C9   11 d         -12.403 206.567 113.512  0.00  0.00    -0.013 C 
ATOM     19  C10  11 d         -12.181 205.801 114.837  0.00  0.00     0.022 C 
ENDBRANCH   8  10
ENDBRANCH   7   8
ENDBRANCH   1   7
BRANCH   4  20
ATOM     20  C18  11 d         -16.513 204.476 122.992  0.00  0.00     0.049 C 
BRANCH  20  21
ATOM     21  C19  11 d         -17.024 205.889 123.310  0.00  0.00     0.084 C 
BRANCH  21  22
ATOM     22  S1   11 d         -18.727 205.811 124.008  0.00  0.00    -0.130 SA
BRANCH  22  23
ATOM     23  C20  11 d         -19.472 204.951 122.596  0.00  0.00     0.000 A 
ATOM     24  C21  11 d         -20.043 203.681 122.786  0.00  0.00     0.018 A 
ATOM     25  C22  11 d         -20.639 203.008 121.708  0.00  0.00     0.001 A 
ATOM     26  C23  11 d         -20.666 203.603 120.438  0.00  0.00     0.000 A 
ATOM     27  C24  11 d         -20.092 204.869 120.244  0.00  0.00     0.001 A 
ATOM     28  C25  11 d         -19.504 205.546 121.323  0.00  0.00     0.018 A 
ENDBRANCH  22  23
ENDBRANCH  21  22
ENDBRANCH  20  21
ENDBRANCH   4  20
TORSDOF 7
ENDMDL
MODEL 11
REMARK VINA RESULT:      -7.6      2.676      3.833
REMARK  7 active torsions:
REMARK  status: ('A' for Active; 'I' for Inactive)
REMARK    1  A    between atoms: C1_1  and  C2_2 
REMARK    2  A    between atoms: C1_1  and  C12_13 
REMARK    3  A    between atoms: C12_13  and  N1_14 
REMARK    4  A    between atoms: C15_17  and  C18_20 
REMARK    5  A    between atoms: C18_20  and  C19_21 
REMARK    6  A    between atoms: C19_21  and  S1_22 
REMARK    7  A    between atoms: S1_22  and  C20_23 
ROOT
ATOM      1  N1   11 d         -11.877 208.173 115.788  0.00  0.00    -0.359 N 
ATOM      2  C13  11 d         -12.086 207.369 116.888  0.00  0.00     0.091 A 
ATOM      3  C14  11 d         -11.048 207.057 117.774  0.00  0.00     0.024 A 
ATOM      4  C15  11 d          -9.761 207.579 117.561  0.00  0.00    -0.055 A 
ATOM      5  C16  11 d          -9.553 208.398 116.437  0.00  0.00     0.024 A 
ATOM      6  C17  11 d         -10.617 208.687 115.568  0.00  0.00     0.091 A 
ENDROOT
BRANCH   1   7
ATOM      7  C12  11 d         -13.065 208.402 114.919  0.00  0.00     0.206 C 
BRANCH   7   8
ATOM      8  C1   11 d         -14.199 207.404 114.684  0.00  0.00     0.153 C 
ATOM      9  O1   11 d         -14.907 207.003 115.642  0.00  0.00    -0.295 OA
BRANCH   8  10
ATOM     10  C2   11 d         -14.544 206.912 113.266  0.00  0.00     0.023 C 
ATOM     11  C3   11 d         -15.807 205.994 113.284  0.00  0.00     0.022 C 
ATOM     12  C4   11 d         -16.103 205.432 111.874  0.00  0.00    -0.013 C 
ATOM     13  C5   11 d         -14.885 204.611 111.386  0.00  0.00     0.009 C 
ATOM     14  C11  11 d         -16.365 206.600 110.898  0.00  0.00     0.009 C 
ATOM     15  C6   11 d         -13.636 205.519 111.327  0.00  0.00    -0.013 C 
ATOM     16  C7   11 d         -13.337 206.081 112.737  0.00  0.00     0.022 C 
ATOM     17  C8   11 d         -13.900 206.687 110.348  0.00  0.00     0.009 C 
ATOM     18  C9   11 d         -15.117 207.508 110.839  0.00  0.00    -0.013 C 
ATOM     19  C10  11 d         -14.820 208.068 112.249  0.00  0.00     0.022 C 
ENDBRANCH   8  10
ENDBRANCH   7   8
ENDBRANCH   1   7
BRANCH   4  20
ATOM     20  C18  11 d          -8.618 207.154 118.463  0.00  0.00     0.049 C 
BRANCH  20  21
ATOM     21  C19  11 d          -7.569 208.243 118.728  0.00  0.00     0.084 C 
BRANCH  21  22
ATOM     22  S1   11 d          -7.346 208.490 120.539  0.00  0.00    -0.130 SA
BRANCH  22  23
ATOM     23  C20  11 d          -6.212 209.898 120.402  0.00  0.00     0.000 A 
ATOM     24  C21  11 d          -4.840 209.661 120.209  0.00  0.00     0.018 A 
ATOM     25  C22  11 d          -3.950 210.739 120.084  0.00  0.00     0.001 A 
ATOM     26  C23  11 d          -4.428 212.056 120.150  0.00  0.00     0.000 A 
ATOM     27  C24  11 d          -5.797 212.296 120.346  0.00  0.00     0.001 A 
ATOM     28  C25  11 d          -6.689 211.219 120.464  0.00  0.00     0.018 A 
ENDBRANCH  22  23
ENDBRANCH  21  22
ENDBRANCH  20  21
ENDBRANCH   4  20
TORSDOF 7
ENDMDL
MODEL 12
REMARK VINA RESULT:      -7.6      2.633      4.374
REMARK  7 active torsions:
REMARK  status: ('A' for Active; 'I' for Inactive)
REMARK    1  A    between atoms: C1_1  and  C2_2 
REMARK    2  A    between atoms: C1_1  and  C12_13 
REMARK    3  A    between atoms: C12_13  and  N1_14 
REMARK    4  A    between atoms: C15_17  and  C18_20 
REMARK    5  A    between atoms: C18_20  and  C19_21 
REMARK    6  A    between atoms: C19_21  and  S1_22 
REMARK    7  A    between atoms: S1_22  and  C20_23 
ROOT
ATOM      1  N1   11 d         -11.378 206.627 118.661  0.00  0.00    -0.359 N 
ATOM      2  C13  11 d         -10.804 207.555 117.819  0.00  0.00     0.091 A 
ATOM      3  C14  11 d          -9.441 207.865 117.893  0.00  0.00     0.024 A 
ATOM      4  C15  11 d          -8.622 207.215 118.831  0.00  0.00    -0.055 A 
ATOM      5  C16  11 d          -9.213 206.269 119.687  0.00  0.00     0.024 A 
ATOM      6  C17  11 d         -10.584 205.986 119.587  0.00  0.00     0.091 A 
ENDROOT
BRANCH   1   7
ATOM      7  C12  11 d         -12.842 206.413 118.487  0.00  0.00     0.206 C 
BRANCH   7   8
ATOM      8  C1   11 d         -13.492 205.577 117.383  0.00  0.00     0.153 C 
ATOM      9  O1   11 d         -13.978 204.447 117.639  0.00  0.00    -0.295 OA
BRANCH   8  10
ATOM     10  C2   11 d         -13.625 206.121 115.949  0.00  0.00     0.023 C 
ATOM     11  C3   11 d         -13.883 207.661 115.956  0.00  0.00     0.022 C 
ATOM     12  C4   11 d         -14.100 208.193 114.521  0.00  0.00    -0.013 C 
ATOM     13  C5   11 d         -15.320 207.478 113.892  0.00  0.00     0.009 C 
ATOM     14  C11  11 d         -12.841 207.914 113.671  0.00  0.00     0.009 C 
ATOM     15  C6   11 d         -15.061 205.954 113.843  0.00  0.00    -0.013 C 
ATOM     16  C7   11 d         -14.844 205.420 115.279  0.00  0.00     0.022 C 
ATOM     17  C8   11 d         -13.801 205.678 112.991  0.00  0.00     0.009 C 
ATOM     18  C9   11 d         -12.582 206.392 113.622  0.00  0.00    -0.013 C 
ATOM     19  C10  11 d         -12.366 205.860 115.058  0.00  0.00     0.022 C 
ENDBRANCH   8  10
ENDBRANCH   7   8
ENDBRANCH   1   7
BRANCH   4  20
ATOM     20  C18  11 d          -7.170 207.630 118.978  0.00  0.00     0.049 C 
BRANCH  20  21
ATOM     21  C19  11 d          -6.680 208.636 117.927  0.00  0.00     0.084 C 
BRANCH  21  22
ATOM     22  S1   11 d          -5.438 207.848 116.818  0.00  0.00    -0.130 SA
BRANCH  22  23
ATOM     23  C20  11 d          -6.208 208.376 115.264  0.00  0.00     0.000 A 
ATOM     24  C21  11 d          -7.404 209.113 115.303  0.00  0.00     0.018 A 
ATOM     25  C22  11 d          -8.006 209.544 114.109  0.00  0.00     0.001 A 
ATOM     26  C23  11 d          -7.412 209.241 112.875  0.00  0.00     0.000 A 
ATOM     27  C24  11 d          -6.220 208.502 112.833  0.00  0.00     0.001 A 
ATOM     28  C25  11 d          -5.614 208.078 114.025  0.00  0.00     0.018 A 
ENDBRANCH  22  23
ENDBRANCH  21  22
ENDBRANCH  20  21
ENDBRANCH   4  20
TORSDOF 7
ENDMDL
MODEL 13
REMARK VINA RESULT:      -7.6      2.176      2.981
REMARK  7 active torsions:
REMARK  status: ('A' for Active; 'I' for Inactive)
REMARK    1  A    between atoms: C1_1  and  C2_2 
REMARK    2  A    between atoms: C1_1  and  C12_13 
REMARK    3  A    between atoms: C12_13  and  N1_14 
REMARK    4  A    between atoms: C15_17  and  C18_20 
REMARK    5  A    between atoms: C18_20  and  C19_21 
REMARK    6  A    between atoms: C19_21  and  S1_22 
REMARK    7  A    between atoms: S1_22  and  C20_23 
ROOT
ATOM      1  N1   11 d         -10.920 208.472 115.137  0.00  0.00    -0.359 N 
ATOM      2  C13  11 d         -10.604 208.059 116.413  0.00  0.00     0.091 A 
ATOM      3  C14  11 d          -9.283 208.063 116.876  0.00  0.00     0.024 A 
ATOM      4  C15  11 d          -8.245 208.508 116.040  0.00  0.00    -0.055 A 
ATOM      5  C16  11 d          -8.574 208.928 114.739  0.00  0.00     0.024 A 
ATOM      6  C17  11 d          -9.909 208.907 114.306  0.00  0.00     0.091 A 
ENDROOT
BRANCH   1   7
ATOM      7  C12  11 d         -12.362 208.394 114.769  0.00  0.00     0.206 C 
BRANCH   7   8
ATOM      8  C1   11 d         -13.181 207.107 114.658  0.00  0.00     0.153 C 
ATOM      9  O1   11 d         -13.398 206.397 115.672  0.00  0.00    -0.295 OA
BRANCH   8  10
ATOM     10  C2   11 d         -13.812 206.680 113.319  0.00  0.00     0.023 C 
ATOM     11  C3   11 d         -12.711 206.302 112.278  0.00  0.00     0.022 C 
ATOM     12  C4   11 d         -13.340 205.955 110.909  0.00  0.00    -0.013 C 
ATOM     13  C5   11 d         -14.133 207.179 110.388  0.00  0.00     0.009 C 
ATOM     14  C11  11 d         -14.295 204.751 111.069  0.00  0.00     0.009 C 
ATOM     15  C6   11 d         -15.251 207.541 111.392  0.00  0.00    -0.013 C 
ATOM     16  C7   11 d         -14.622 207.888 112.762  0.00  0.00     0.022 C 
ATOM     17  C8   11 d         -16.205 206.334 111.550  0.00  0.00     0.009 C 
ATOM     18  C9   11 d         -15.412 205.112 112.073  0.00  0.00    -0.013 C 
ATOM     19  C10  11 d         -14.782 205.460 113.441  0.00  0.00     0.022 C 
ENDBRANCH   8  10
ENDBRANCH   7   8
ENDBRANCH   1   7
BRANCH   4  20
ATOM     20  C18  11 d          -6.806 208.411 116.509  0.00  0.00     0.049 C 
BRANCH  20  21
ATOM     21  C19  11 d          -6.337 209.578 117.389  0.00  0.00     0.084 C 
BRANCH  21  22
ATOM     22  S1   11 d          -6.417 209.111 119.169  0.00  0.00    -0.130 SA
BRANCH  22  23
ATOM     23  C20  11 d          -5.469 210.529 119.782  0.00  0.00     0.000 A 
ATOM     24  C21  11 d          -4.072 210.539 119.635  0.00  0.00     0.018 A 
ATOM     25  C22  11 d          -3.323 211.637 120.089  0.00  0.00     0.001 A 
ATOM     26  C23  11 d          -3.970 212.728 120.689  0.00  0.00     0.000 A 
ATOM     27  C24  11 d          -5.366 212.719 120.841  0.00  0.00     0.001 A 
ATOM     28  C25  11 d          -6.115 211.626 120.380  0.00  0.00     0.018 A 
ENDBRANCH  22  23
ENDBRANCH  21  22
ENDBRANCH  20  21
ENDBRANCH   4  20
TORSDOF 7
ENDMDL
MODEL 14
REMARK VINA RESULT:      -7.3      2.533      4.414
REMARK  7 active torsions:
REMARK  status: ('A' for Active; 'I' for Inactive)
REMARK    1  A    between atoms: C1_1  and  C2_2 
REMARK    2  A    between atoms: C1_1  and  C12_13 
REMARK    3  A    between atoms: C12_13  and  N1_14 
REMARK    4  A    between atoms: C15_17  and  C18_20 
REMARK    5  A    between atoms: C18_20  and  C19_21 
REMARK    6  A    between atoms: C19_21  and  S1_22 
REMARK    7  A    between atoms: S1_22  and  C20_23 
ROOT
ATOM      1  N1   11 d          -9.208 209.072 114.958  0.00  0.00    -0.359 N 
ATOM      2  C13  11 d          -8.184 208.810 115.841  0.00  0.00     0.091 A 
ATOM      3  C14  11 d          -6.842 208.899 115.452  0.00  0.00     0.024 A 
ATOM      4  C15  11 d          -6.513 209.277 114.139  0.00  0.00    -0.055 A 
ATOM      5  C16  11 d          -7.563 209.544 113.243  0.00  0.00     0.024 A 
ATOM      6  C17  11 d          -8.898 209.442 113.666  0.00  0.00     0.091 A 
ENDROOT
BRANCH   1   7
ATOM      7  C12  11 d         -10.587 208.917 115.500  0.00  0.00     0.206 C 
BRANCH   7   8
ATOM      8  C1   11 d         -11.330 207.590 115.669  0.00  0.00     0.153 C 
ATOM      9  O1   11 d         -10.995 206.780 116.569  0.00  0.00    -0.295 OA
BRANCH   8  10
ATOM     10  C2   11 d         -12.542 207.240 114.786  0.00  0.00     0.023 C 
ATOM     11  C3   11 d         -13.653 208.331 114.904  0.00  0.00     0.022 C 
ATOM     12  C4   11 d         -14.904 207.939 114.085  0.00  0.00    -0.013 C 
ATOM     13  C5   11 d         -15.456 206.592 114.611  0.00  0.00     0.009 C 
ATOM     14  C11  11 d         -14.520 207.795 112.595  0.00  0.00     0.009 C 
ATOM     15  C6   11 d         -14.378 205.494 114.463  0.00  0.00    -0.013 C 
ATOM     16  C7   11 d         -13.126 205.885 115.284  0.00  0.00     0.022 C 
ATOM     17  C8   11 d         -13.996 205.351 112.971  0.00  0.00     0.009 C 
ATOM     18  C9   11 d         -13.442 206.698 112.447  0.00  0.00    -0.013 C 
ATOM     19  C10  11 d         -12.193 207.090 113.269  0.00  0.00     0.022 C 
ENDBRANCH   8  10
ENDBRANCH   7   8
ENDBRANCH   1   7
BRANCH   4  20
ATOM     20  C18  11 d          -5.064 209.270 113.695  0.00  0.00     0.049 C 
BRANCH  20  21
ATOM     21  C19  11 d          -4.413 207.881 113.645  0.00  0.00     0.084 C 
BRANCH  21  22
ATOM     22  S1   11 d          -2.578 208.035 113.592  0.00  0.00    -0.130 SA
BRANCH  22  23
ATOM     23  C20  11 d          -2.464 208.329 111.807  0.00  0.00     0.000 A 
ATOM     24  C21  11 d          -1.289 208.888 111.274  0.00  0.00     0.018 A 
ATOM     25  C22  11 d          -1.177 209.107 109.892  0.00  0.00     0.001 A 
ATOM     26  C23  11 d          -2.238 208.768 109.039  0.00  0.00     0.000 A 
ATOM     27  C24  11 d          -3.414 208.214 109.569  0.00  0.00     0.001 A 
ATOM     28  C25  11 d          -3.524 207.987 110.949  0.00  0.00     0.018 A 
ENDBRANCH  22  23
ENDBRANCH  21  22
ENDBRANCH  20  21
ENDBRANCH   4  20
TORSDOF 7
ENDMDL
MODEL 15
REMARK VINA RESULT:      -7.3      7.353     10.203
REMARK  7 active torsions:
REMARK  status: ('A' for Active; 'I' for Inactive)
REMARK    1  A    between atoms: C1_1  and  C2_2 
REMARK    2  A    between atoms: C1_1  and  C12_13 
REMARK    3  A    between atoms: C12_13  and  N1_14 
REMARK    4  A    between atoms: C15_17  and  C18_20 
REMARK    5  A    between atoms: C18_20  and  C19_21 
REMARK    6  A    between atoms: C19_21  and  S1_22 
REMARK    7  A    between atoms: S1_22  and  C20_23 
ROOT
ATOM      1  N1   11 d         -13.682 205.837 120.048  0.00  0.00    -0.359 N 
ATOM      2  C13  11 d         -14.899 206.467 120.189  0.00  0.00     0.091 A 
ATOM      3  C14  11 d         -15.571 206.492 121.418  0.00  0.00     0.024 A 
ATOM      4  C15  11 d         -14.999 205.878 122.545  0.00  0.00    -0.055 A 
ATOM      5  C16  11 d         -13.757 205.237 122.394  0.00  0.00     0.024 A 
ATOM      6  C17  11 d         -13.113 205.228 121.147  0.00  0.00     0.091 A 
ENDROOT
BRANCH   1   7
ATOM      7  C12  11 d         -13.091 205.868 118.680  0.00  0.00     0.206 C 
BRANCH   7   8
ATOM      8  C1   11 d         -13.717 205.249 117.429  0.00  0.00     0.153 C 
ATOM      9  O1   11 d         -14.274 204.124 117.482  0.00  0.00    -0.295 OA
BRANCH   8  10
ATOM     10  C2   11 d         -13.735 206.011 116.091  0.00  0.00     0.023 C 
ATOM     11  C3   11 d         -14.816 205.423 115.128  0.00  0.00     0.022 C 
ATOM     12  C4   11 d         -14.777 206.131 113.754  0.00  0.00    -0.013 C 
ATOM     13  C5   11 d         -13.377 205.942 113.122  0.00  0.00     0.009 C 
ATOM     14  C11  11 d         -15.061 207.638 113.943  0.00  0.00     0.009 C 
ATOM     15  C6   11 d         -12.301 206.555 114.048  0.00  0.00    -0.013 C 
ATOM     16  C7   11 d         -12.338 205.846 115.423  0.00  0.00     0.022 C 
ATOM     17  C8   11 d         -12.587 208.063 114.235  0.00  0.00     0.009 C 
ATOM     18  C9   11 d         -13.987 208.250 114.868  0.00  0.00    -0.013 C 
ATOM     19  C10  11 d         -14.024 207.540 116.241  0.00  0.00     0.022 C 
ENDBRANCH   8  10
ENDBRANCH   7   8
ENDBRANCH   1   7
BRANCH   4  20
ATOM     20  C18  11 d         -15.779 205.818 123.845  0.00  0.00     0.049 C 
BRANCH  20  21
ATOM     21  C19  11 d         -17.297 205.988 123.693  0.00  0.00     0.084 C 
BRANCH  21  22
ATOM     22  S1   11 d         -18.158 204.400 124.054  0.00  0.00    -0.130 SA
BRANCH  22  23
ATOM     23  C20  11 d         -18.691 204.080 122.351  0.00  0.00     0.000 A 
ATOM     24  C21  11 d         -20.045 204.241 122.010  0.00  0.00     0.018 A 
ATOM     25  C22  11 d         -20.471 204.014 120.692  0.00  0.00     0.001 A 
ATOM     26  C23  11 d         -19.546 203.626 119.712  0.00  0.00     0.000 A 
ATOM     27  C24  11 d         -18.194 203.460 120.050  0.00  0.00     0.001 A 
ATOM     28  C25  11 d         -17.765 203.695 121.365  0.00  0.00     0.018 A 
ENDBRANCH  22  23
ENDBRANCH  21  22
ENDBRANCH  20  21
ENDBRANCH   4  20
TORSDOF 7
ENDMDL
MODEL 16
REMARK VINA RESULT:      -7.0      3.551     10.550
REMARK  7 active torsions:
REMARK  status: ('A' for Active; 'I' for Inactive)
REMARK    1  A    between atoms: C1_1  and  C2_2 
REMARK    2  A    between atoms: C1_1  and  C12_13 
REMARK    3  A    between atoms: C12_13  and  N1_14 
REMARK    4  A    between atoms: C15_17  and  C18_20 
REMARK    5  A    between atoms: C18_20  and  C19_21 
REMARK    6  A    between atoms: C19_21  and  S1_22 
REMARK    7  A    between atoms: S1_22  and  C20_23 
ROOT
ATOM      1  N1   11 d          -9.601 207.285 118.588  0.00  0.00    -0.359 N 
ATOM      2  C13  11 d          -9.417 208.114 117.502  0.00  0.00     0.091 A 
ATOM      3  C14  11 d         -10.416 208.285 116.536  0.00  0.00     0.024 A 
ATOM      4  C15  11 d         -11.645 207.617 116.668  0.00  0.00    -0.055 A 
ATOM      5  C16  11 d         -11.827 206.774 117.778  0.00  0.00     0.024 A 
ATOM      6  C17  11 d         -10.802 206.622 118.726  0.00  0.00     0.091 A 
ENDROOT
BRANCH   1   7
ATOM      7  C12  11 d          -8.447 207.179 119.524  0.00  0.00     0.206 C 
BRANCH   7   8
ATOM      8  C1   11 d          -8.158 208.129 120.688  0.00  0.00     0.153 C 
ATOM      9  O1   11 d          -8.853 208.088 121.735  0.00  0.00    -0.295 OA
BRANCH   8  10
ATOM     10  C2   11 d          -6.975 209.113 120.635  0.00  0.00     0.023 C 
ATOM     11  C3   11 d          -6.220 209.154 122.002  0.00  0.00     0.022 C 
ATOM     12  C4   11 d          -5.085 210.203 121.977  0.00  0.00    -0.013 C 
ATOM     13  C5   11 d          -5.688 211.599 121.688  0.00  0.00     0.009 C 
ATOM     14  C11  11 d          -4.070 209.839 120.870  0.00  0.00     0.009 C 
ATOM     15  C6   11 d          -6.406 211.583 120.319  0.00  0.00    -0.013 C 
ATOM     16  C7   11 d          -7.543 210.534 120.343  0.00  0.00     0.022 C 
ATOM     17  C8   11 d          -5.388 211.219 119.213  0.00  0.00     0.009 C 
ATOM     18  C9   11 d          -4.787 209.822 119.502  0.00  0.00    -0.013 C 
ATOM     19  C10  11 d          -5.923 208.774 119.529  0.00  0.00     0.022 C 
ENDBRANCH   8  10
ENDBRANCH   7   8
ENDBRANCH   1   7
BRANCH   4  20
ATOM     20  C18  11 d         -12.682 207.724 115.566  0.00  0.00     0.049 C 
BRANCH  20  21
ATOM     21  C19  11 d         -12.804 206.479 114.675  0.00  0.00     0.084 C 
BRANCH  21  22
ATOM     22  S1   11 d         -12.357 206.892 112.936  0.00  0.00    -0.130 SA
BRANCH  22  23
ATOM     23  C20  11 d         -14.022 206.669 112.254  0.00  0.00     0.000 A 
ATOM     24  C21  11 d         -15.038 206.148 113.073  0.00  0.00     0.018 A 
ATOM     25  C22  11 d         -16.337 205.986 112.565  0.00  0.00     0.001 A 
ATOM     26  C23  11 d         -16.623 206.343 111.240  0.00  0.00     0.000 A 
ATOM     27  C24  11 d         -15.609 206.859 110.418  0.00  0.00     0.001 A 
ATOM     28  C25  11 d         -14.312 207.031 110.926  0.00  0.00     0.018 A 
ENDBRANCH  22  23
ENDBRANCH  21  22
ENDBRANCH  20  21
ENDBRANCH   4  20
TORSDOF 7
ENDMDL
MODEL 17
REMARK VINA RESULT:      -6.9      3.421     10.354
REMARK  7 active torsions:
REMARK  status: ('A' for Active; 'I' for Inactive)
REMARK    1  A    between atoms: C1_1  and  C2_2 
REMARK    2  A    between atoms: C1_1  and  C12_13 
REMARK    3  A    between atoms: C12_13  and  N1_14 
REMARK    4  A    between atoms: C15_17  and  C18_20 
REMARK    5  A    between atoms: C18_20  and  C19_21 
REMARK    6  A    between atoms: C19_21  and  S1_22 
REMARK    7  A    between atoms: S1_22  and  C20_23 
ROOT
ATOM      1  N1   11 d          -9.185 208.183 116.851  0.00  0.00    -0.359 N 
ATOM      2  C13  11 d          -9.745 207.601 117.968  0.00  0.00     0.091 A 
ATOM      3  C14  11 d         -11.119 207.342 118.045  0.00  0.00     0.024 A 
ATOM      4  C15  11 d         -11.958 207.662 116.964  0.00  0.00    -0.055 A 
ATOM      5  C16  11 d         -11.380 208.255 115.828  0.00  0.00     0.024 A 
ATOM      6  C17  11 d          -9.999 208.504 115.786  0.00  0.00     0.091 A 
ENDROOT
BRANCH   1   7
ATOM      7  C12  11 d          -7.715 208.422 116.914  0.00  0.00     0.206 C 
BRANCH   7   8
ATOM      8  C1   11 d          -6.799 208.016 118.069  0.00  0.00     0.153 C 
ATOM      9  O1   11 d          -6.463 206.816 118.228  0.00  0.00    -0.295 OA
BRANCH   8  10
ATOM     10  C2   11 d          -6.214 209.071 119.027  0.00  0.00     0.023 C 
ATOM     11  C3   11 d          -5.109 208.448 119.938  0.00  0.00     0.022 C 
ATOM     12  C4   11 d          -4.582 209.484 120.957  0.00  0.00    -0.013 C 
ATOM     13  C5   11 d          -5.755 209.970 121.843  0.00  0.00     0.009 C 
ATOM     14  C11  11 d          -3.971 210.686 120.203  0.00  0.00     0.009 C 
ATOM     15  C6   11 d          -6.840 210.624 120.957  0.00  0.00    -0.013 C 
ATOM     16  C7   11 d          -7.369 209.588 119.937  0.00  0.00     0.022 C 
ATOM     17  C8   11 d          -6.226 211.827 120.203  0.00  0.00     0.009 C 
ATOM     18  C9   11 d          -5.055 211.339 119.317  0.00  0.00    -0.013 C 
ATOM     19  C10  11 d          -5.583 210.302 118.299  0.00  0.00     0.022 C 
ENDBRANCH   8  10
ENDBRANCH   7   8
ENDBRANCH   1   7
BRANCH   4  20
ATOM     20  C18  11 d         -13.457 207.476 117.095  0.00  0.00     0.049 C 
BRANCH  20  21
ATOM     21  C19  11 d         -14.119 206.744 115.919  0.00  0.00     0.084 C 
BRANCH  21  22
ATOM     22  S1   11 d         -14.952 207.949 114.802  0.00  0.00    -0.130 SA
BRANCH  22  23
ATOM     23  C20  11 d         -14.883 206.911 113.317  0.00  0.00     0.000 A 
ATOM     24  C21  11 d         -13.645 206.690 112.688  0.00  0.00     0.018 A 
ATOM     25  C22  11 d         -13.571 205.876 111.547  0.00  0.00     0.001 A 
ATOM     26  C23  11 d         -14.732 205.281 111.032  0.00  0.00     0.000 A 
ATOM     27  C24  11 d         -15.970 205.503 111.655  0.00  0.00     0.001 A 
ATOM     28  C25  11 d         -16.044 206.310 112.801  0.00  0.00     0.018 A 
ENDBRANCH  22  23
ENDBRANCH  21  22
ENDBRANCH  20  21
ENDBRANCH   4  20
TORSDOF 7
ENDMDL
MODEL 18
REMARK VINA RESULT:      -6.9      8.483     11.187
REMARK  7 active torsions:
REMARK  status: ('A' for Active; 'I' for Inactive)
REMARK    1  A    between atoms: C1_1  and  C2_2 
REMARK    2  A    between atoms: C1_1  and  C12_13 
REMARK    3  A    between atoms: C12_13  and  N1_14 
REMARK    4  A    between atoms: C15_17  and  C18_20 
REMARK    5  A    between atoms: C18_20  and  C19_21 
REMARK    6  A    between atoms: C19_21  and  S1_22 
REMARK    7  A    between atoms: S1_22  and  C20_23 
ROOT
ATOM      1  N1   11 d         -14.877 205.086 120.185  0.00  0.00    -0.359 N 
ATOM      2  C13  11 d         -14.148 206.183 119.781  0.00  0.00     0.091 A 
ATOM      3  C14  11 d         -13.571 206.249 118.507  0.00  0.00     0.024 A 
ATOM      4  C15  11 d         -13.741 205.187 117.602  0.00  0.00    -0.055 A 
ATOM      5  C16  11 d         -14.487 204.071 118.020  0.00  0.00     0.024 A 
ATOM      6  C17  11 d         -15.048 204.038 119.306  0.00  0.00     0.091 A 
ENDROOT
BRANCH   1   7
ATOM      7  C12  11 d         -15.414 205.141 121.573  0.00  0.00     0.206 C 
BRANCH   7   8
ATOM      8  C1   11 d         -16.539 206.059 122.055  0.00  0.00     0.153 C 
ATOM      9  O1   11 d         -16.916 207.030 121.353  0.00  0.00    -0.295 OA
BRANCH   8  10
ATOM     10  C2   11 d         -17.280 205.781 123.376  0.00  0.00     0.023 C 
ATOM     11  C3   11 d         -16.302 205.857 124.592  0.00  0.00     0.022 C 
ATOM     12  C4   11 d         -17.027 205.496 125.909  0.00  0.00    -0.013 C 
ATOM     13  C5   11 d         -17.592 204.059 125.801  0.00  0.00     0.009 C 
ATOM     14  C11  11 d         -18.183 206.490 126.151  0.00  0.00     0.009 C 
ATOM     15  C6   11 d         -18.592 203.980 124.625  0.00  0.00    -0.013 C 
ATOM     16  C7   11 d         -17.867 204.340 123.306  0.00  0.00     0.022 C 
ATOM     17  C8   11 d         -19.749 204.976 124.870  0.00  0.00     0.009 C 
ATOM     18  C9   11 d         -19.182 206.412 124.975  0.00  0.00    -0.013 C 
ATOM     19  C10  11 d         -18.457 206.772 123.658  0.00  0.00     0.022 C 
ENDBRANCH   8  10
ENDBRANCH   7   8
ENDBRANCH   1   7
BRANCH   4  20
ATOM     20  C18  11 d         -13.027 205.218 116.264  0.00  0.00     0.049 C 
BRANCH  20  21
ATOM     21  C19  11 d         -13.586 206.237 115.261  0.00  0.00     0.084 C 
BRANCH  21  22
ATOM     22  S1   11 d         -15.313 205.797 114.797  0.00  0.00    -0.130 SA
BRANCH  22  23
ATOM     23  C20  11 d         -15.124 206.126 113.024  0.00  0.00     0.000 A 
ATOM     24  C21  11 d         -13.837 206.147 112.460  0.00  0.00     0.018 A 
ATOM     25  C22  11 d         -13.674 206.383 111.086  0.00  0.00     0.001 A 
ATOM     26  C23  11 d         -14.796 206.598 110.272  0.00  0.00     0.000 A 
ATOM     27  C24  11 d         -16.082 206.582 110.833  0.00  0.00     0.001 A 
ATOM     28  C25  11 d         -16.247 206.338 112.205  0.00  0.00     0.018 A 
ENDBRANCH  22  23
ENDBRANCH  21  22
ENDBRANCH  20  21
ENDBRANCH   4  20
TORSDOF 7
ENDMDL
MODEL 19
REMARK VINA RESULT:      -6.7      3.498      9.924
REMARK  7 active torsions:
REMARK  status: ('A' for Active; 'I' for Inactive)
REMARK    1  A    between atoms: C1_1  and  C2_2 
REMARK    2  A    between atoms: C1_1  and  C12_13 
REMARK    3  A    between atoms: C12_13  and  N1_14 
REMARK    4  A    between atoms: C15_17  and  C18_20 
REMARK    5  A    between atoms: C18_20  and  C19_21 
REMARK    6  A    between atoms: C19_21  and  S1_22 
REMARK    7  A    between atoms: S1_22  and  C20_23 
ROOT
ATOM      1  N1   11 d          -9.642 207.250 118.566  0.00  0.00    -0.359 N 
ATOM      2  C13  11 d         -10.556 206.336 119.043  0.00  0.00     0.091 A 
ATOM      3  C14  11 d         -11.811 206.175 118.443  0.00  0.00     0.024 A 
ATOM      4  C15  11 d         -12.157 206.944 117.318  0.00  0.00    -0.055 A 
ATOM      5  C16  11 d         -11.219 207.875 116.836  0.00  0.00     0.024 A 
ATOM      6  C17  11 d          -9.972 208.012 117.465  0.00  0.00     0.091 A 
ENDROOT
BRANCH   1   7
ATOM      7  C12  11 d          -8.357 207.333 119.315  0.00  0.00     0.206 C 
BRANCH   7   8
ATOM      8  C1   11 d          -7.292 208.416 119.136  0.00  0.00     0.153 C 
ATOM      9  O1   11 d          -7.325 209.466 119.826  0.00  0.00    -0.295 OA
BRANCH   8  10
ATOM     10  C2   11 d          -6.122 208.225 118.154  0.00  0.00     0.023 C 
ATOM     11  C3   11 d          -6.302 209.122 116.888  0.00  0.00     0.022 C 
ATOM     12  C4   11 d          -5.172 208.868 115.864  0.00  0.00    -0.013 C 
ATOM     13  C5   11 d          -5.195 207.380 115.438  0.00  0.00     0.009 C 
ATOM     14  C11  11 d          -3.807 209.201 116.507  0.00  0.00     0.009 C 
ATOM     15  C6   11 d          -4.980 206.481 116.677  0.00  0.00    -0.013 C 
ATOM     16  C7   11 d          -6.111 206.734 117.703  0.00  0.00     0.022 C 
ATOM     17  C8   11 d          -3.614 206.815 117.319  0.00  0.00     0.009 C 
ATOM     18  C9   11 d          -3.592 208.303 117.746  0.00  0.00    -0.013 C 
ATOM     19  C10  11 d          -4.723 208.556 118.769  0.00  0.00     0.022 C 
ENDBRANCH   8  10
ENDBRANCH   7   8
ENDBRANCH   1   7
BRANCH   4  20
ATOM     20  C18  11 d         -13.553 206.840 116.737  0.00  0.00     0.049 C 
BRANCH  20  21
ATOM     21  C19  11 d         -13.613 206.300 115.301  0.00  0.00     0.084 C 
BRANCH  21  22
ATOM     22  S1   11 d         -15.282 205.604 114.949  0.00  0.00    -0.130 SA
BRANCH  22  23
ATOM     23  C20  11 d         -15.349 206.137 113.217  0.00  0.00     0.000 A 
ATOM     24  C21  11 d         -16.548 205.996 112.498  0.00  0.00     0.018 A 
ATOM     25  C22  11 d         -16.623 206.418 111.161  0.00  0.00     0.001 A 
ATOM     26  C23  11 d         -15.499 206.983 110.540  0.00  0.00     0.000 A 
ATOM     27  C24  11 d         -14.298 207.121 111.254  0.00  0.00     0.001 A 
ATOM     28  C25  11 d         -14.225 206.707 112.593  0.00  0.00     0.018 A 
ENDBRANCH  22  23
ENDBRANCH  21  22
ENDBRANCH  20  21
ENDBRANCH   4  20
TORSDOF 7
ENDMDL
MODEL 20
REMARK VINA RESULT:      -6.5      8.140     10.325
REMARK  7 active torsions:
REMARK  status: ('A' for Active; 'I' for Inactive)
REMARK    1  A    between atoms: C1_1  and  C2_2 
REMARK    2  A    between atoms: C1_1  and  C12_13 
REMARK    3  A    between atoms: C12_13  and  N1_14 
REMARK    4  A    between atoms: C15_17  and  C18_20 
REMARK    5  A    between atoms: C18_20  and  C19_21 
REMARK    6  A    between atoms: C19_21  and  S1_22 
REMARK    7  A    between atoms: S1_22  and  C20_23 
ROOT
ATOM      1  N1   11 d         -14.091 205.184 120.010  0.00  0.00    -0.359 N 
ATOM      2  C13  11 d         -13.021 205.342 120.864  0.00  0.00     0.091 A 
ATOM      3  C14  11 d         -12.989 204.720 122.118  0.00  0.00     0.024 A 
ATOM      4  C15  11 d         -14.055 203.901 122.525  0.00  0.00    -0.055 A 
ATOM      5  C16  11 d         -15.143 203.743 121.649  0.00  0.00     0.024 A 
ATOM      6  C17  11 d         -15.144 204.385 120.401  0.00  0.00     0.091 A 
ENDROOT
BRANCH   1   7
ATOM      7  C12  11 d         -14.004 205.922 118.719  0.00  0.00     0.206 C 
BRANCH   7   8
ATOM      8  C1   11 d         -13.886 205.279 117.336  0.00  0.00     0.153 C 
ATOM      9  O1   11 d         -14.155 204.063 117.170  0.00  0.00    -0.295 OA
BRANCH   8  10
ATOM     10  C2   11 d         -13.498 206.115 116.102  0.00  0.00     0.023 C 
ATOM     11  C3   11 d         -14.479 205.850 114.916  0.00  0.00     0.022 C 
ATOM     12  C4   11 d         -14.040 206.624 113.651  0.00  0.00    -0.013 C 
ATOM     13  C5   11 d         -12.617 206.171 113.244  0.00  0.00     0.009 C 
ATOM     14  C11  11 d         -14.035 208.140 113.950  0.00  0.00     0.009 C 
ATOM     15  C6   11 d         -11.629 206.464 114.396  0.00  0.00    -0.013 C 
ATOM     16  C7   11 d         -12.066 205.689 115.662  0.00  0.00     0.022 C 
ATOM     17  C8   11 d         -11.625 207.981 114.692  0.00  0.00     0.009 C 
ATOM     18  C9   11 d         -13.048 208.432 115.101  0.00  0.00    -0.013 C 
ATOM     19  C10  11 d         -13.486 207.657 116.365  0.00  0.00     0.022 C 
ENDBRANCH   8  10
ENDBRANCH   7   8
ENDBRANCH   1   7
BRANCH   4  20
ATOM     20  C18  11 d         -14.062 203.315 123.924  0.00  0.00     0.049 C 
BRANCH  20  21
ATOM     21  C19  11 d         -14.630 204.244 125.007  0.00  0.00     0.084 C 
BRANCH  21  22
ATOM     22  S1   11 d         -16.086 203.462 125.821  0.00  0.00    -0.130 SA
BRANCH  22  23
ATOM     23  C20  11 d         -17.340 204.432 124.940  0.00  0.00     0.000 A 
ATOM     24  C21  11 d         -18.676 203.999 124.947  0.00  0.00     0.018 A 
ATOM     25  C22  11 d         -19.663 204.747 124.284  0.00  0.00     0.001 A 
ATOM     26  C23  11 d         -19.315 205.930 123.615  0.00  0.00     0.000 A 
ATOM     27  C24  11 d         -17.980 206.363 123.603  0.00  0.00     0.001 A 
ATOM     28  C25  11 d         -16.995 205.620 124.272  0.00  0.00     0.018 A 
ENDBRANCH  22  23
ENDBRANCH  21  22
ENDBRANCH  20  21
ENDBRANCH   4  20
TORSDOF 7
ENDMDL
