MODEL 1
REMARK VINA RESULT:      -7.9      0.000      0.000
REMARK  1 active torsions:
REMARK  status: ('A' for Active; 'I' for Inactive)
REMARK    1  A    between atoms: C1_1  and  C2_2 
ROOT
ATOM      1  C1   11 d         -11.346 208.122 114.205  0.00  0.00     0.059 A 
ATOM      2  C4   11 d         -10.910 207.789 112.926  0.00  0.00     0.067 A 
ATOM      3  N1   11 d         -11.977 207.384 112.213  0.00  0.00    -0.171 NA
ATOM      4  N2   11 d         -13.040 207.410 112.964  0.00  0.00    -0.237 N 
ATOM      5  C5   11 d         -12.718 207.860 114.207  0.00  0.00     0.048 A 
ATOM      6  C6   11 d         -13.693 208.336 115.250  0.00  0.00     0.071 C 
ATOM      7  C7   11 d         -14.339 207.010 112.462  0.00  0.00     0.058 A 
ATOM      8  C8   11 d         -14.640 207.192 111.094  0.00  0.00     0.031 A 
ATOM      9  C9   11 d         -15.880 206.796 110.572  0.00  0.00     0.002 A 
ATOM     10  C10  11 d         -16.840 206.213 111.411  0.00  0.00     0.000 A 
ATOM     11  C11  11 d         -16.552 206.013 112.768  0.00  0.00     0.002 A 
ATOM     12  C12  11 d         -15.306 206.398 113.287  0.00  0.00     0.031 A 
ATOM     13  C13  11 d          -9.561 208.007 112.310  0.00  0.00     0.073 C 
ENDROOT
BRANCH   1  14
ATOM     14  C2   11 d         -10.503 208.632 115.326  0.00  0.00     0.159 C 
ATOM     15  O1   11 d          -9.695 209.571 115.119  0.00  0.00    -0.293 OA
ATOM     16  C3   11 d         -10.424 207.923 116.645  0.00  0.00     0.097 C 
ENDBRANCH   1  14
TORSDOF 1
ENDMDL
MODEL 2
REMARK VINA RESULT:      -7.8      1.419      2.832
REMARK  1 active torsions:
REMARK  status: ('A' for Active; 'I' for Inactive)
REMARK    1  A    between atoms: C1_1  and  C2_2 
ROOT
ATOM      1  C1   11 d         -10.157 208.365 113.352  0.00  0.00     0.059 A 
ATOM      2  C4   11 d         -10.846 208.048 114.519  0.00  0.00     0.067 A 
ATOM      3  N1   11 d         -11.995 207.440 114.173  0.00  0.00    -0.171 NA
ATOM      4  N2   11 d         -12.088 207.384 112.876  0.00  0.00    -0.237 N 
ATOM      5  C5   11 d         -10.981 207.937 112.308  0.00  0.00     0.048 A 
ATOM      6  C6   11 d         -10.557 207.781 110.873  0.00  0.00     0.071 C 
ATOM      7  C7   11 d         -13.234 206.791 112.217  0.00  0.00     0.058 A 
ATOM      8  C8   11 d         -13.934 205.743 112.854  0.00  0.00     0.031 A 
ATOM      9  C9   11 d         -15.061 205.162 112.252  0.00  0.00     0.002 A 
ATOM     10  C10  11 d         -15.504 205.620 111.003  0.00  0.00     0.000 A 
ATOM     11  C11  11 d         -14.828 206.669 110.365  0.00  0.00     0.002 A 
ATOM     12  C12  11 d         -13.709 207.259 110.973  0.00  0.00     0.031 A 
ATOM     13  C13  11 d         -10.375 208.142 115.939  0.00  0.00     0.073 C 
ENDROOT
BRANCH   1  14
ATOM     14  C2   11 d          -8.828 209.037 113.260  0.00  0.00     0.159 C 
ATOM     15  O1   11 d          -8.705 210.228 113.640  0.00  0.00    -0.293 OA
ATOM     16  C3   11 d          -7.674 208.418 112.527  0.00  0.00     0.097 C 
ENDBRANCH   1  14
TORSDOF 1
ENDMDL
MODEL 3
REMARK VINA RESULT:      -7.7      2.630      6.216
REMARK  1 active torsions:
REMARK  status: ('A' for Active; 'I' for Inactive)
REMARK    1  A    between atoms: C1_1  and  C2_2 
ROOT
ATOM      1  C1   11 d         -13.060 206.391 111.941  0.00  0.00     0.059 A 
ATOM      2  C4   11 d         -13.052 206.357 113.332  0.00  0.00     0.067 A 
ATOM      3  N1   11 d         -11.942 206.985 113.759  0.00  0.00    -0.171 NA
ATOM      4  N2   11 d         -11.241 207.381 112.736  0.00  0.00    -0.237 N 
ATOM      5  C5   11 d         -11.879 207.046 111.581  0.00  0.00     0.048 A 
ATOM      6  C6   11 d         -11.572 207.597 110.214  0.00  0.00     0.071 C 
ATOM      7  C7   11 d          -9.982 208.078 112.897  0.00  0.00     0.058 A 
ATOM      8  C8   11 d          -9.778 208.888 114.035  0.00  0.00     0.031 A 
ATOM      9  C9   11 d          -8.562 209.560 114.231  0.00  0.00     0.002 A 
ATOM     10  C10  11 d          -7.530 209.432 113.289  0.00  0.00     0.000 A 
ATOM     11  C11  11 d          -7.711 208.621 112.161  0.00  0.00     0.002 A 
ATOM     12  C12  11 d          -8.924 207.939 111.972  0.00  0.00     0.031 A 
ATOM     13  C13  11 d         -14.137 205.909 114.264  0.00  0.00     0.073 C 
ENDROOT
BRANCH   1  14
ATOM     14  C2   11 d         -14.109 205.825 111.044  0.00  0.00     0.159 C 
ATOM     15  O1   11 d         -14.110 204.597 110.785  0.00  0.00    -0.293 OA
ATOM     16  C3   11 d         -15.041 206.702 110.260  0.00  0.00     0.097 C 
ENDBRANCH   1  14
TORSDOF 1
ENDMDL
MODEL 4
REMARK VINA RESULT:      -7.5      1.619      2.971
REMARK  1 active torsions:
REMARK  status: ('A' for Active; 'I' for Inactive)
REMARK    1  A    between atoms: C1_1  and  C2_2 
ROOT
ATOM      1  C1   11 d         -12.260 207.462 115.716  0.00  0.00     0.059 A 
ATOM      2  C4   11 d         -13.448 207.442 116.440  0.00  0.00     0.067 A 
ATOM      3  N1   11 d         -14.457 207.207 115.583  0.00  0.00    -0.171 NA
ATOM      4  N2   11 d         -13.989 207.110 114.372  0.00  0.00    -0.237 N 
ATOM      5  C5   11 d         -12.636 207.256 114.386  0.00  0.00     0.048 A 
ATOM      6  C6   11 d         -11.701 206.894 113.263  0.00  0.00     0.071 C 
ATOM      7  C7   11 d         -14.855 206.871 113.236  0.00  0.00     0.058 A 
ATOM      8  C8   11 d         -16.046 206.132 113.414  0.00  0.00     0.031 A 
ATOM      9  C9   11 d         -16.916 205.901 112.338  0.00  0.00     0.002 A 
ATOM     10  C10  11 d         -16.609 206.404 111.066  0.00  0.00     0.000 A 
ATOM     11  C11  11 d         -15.438 207.151 110.875  0.00  0.00     0.002 A 
ATOM     12  C12  11 d         -14.574 207.393 111.955  0.00  0.00     0.031 A 
ATOM     13  C13  11 d         -13.638 207.463 117.927  0.00  0.00     0.073 C 
ENDROOT
BRANCH   1  14
ATOM     14  C2   11 d         -10.889 207.677 116.263  0.00  0.00     0.159 C 
ATOM     15  O1   11 d         -10.463 206.937 117.184  0.00  0.00    -0.293 OA
ATOM     16  C3   11 d         -10.073 208.885 115.907  0.00  0.00     0.097 C 
ENDBRANCH   1  14
TORSDOF 1
ENDMDL
MODEL 5
REMARK VINA RESULT:      -7.3      2.583      5.717
REMARK  1 active torsions:
REMARK  status: ('A' for Active; 'I' for Inactive)
REMARK    1  A    between atoms: C1_1  and  C2_2 
ROOT
ATOM      1  C1   11 d         -13.198 206.377 112.420  0.00  0.00     0.059 A 
ATOM      2  C4   11 d         -12.952 206.998 111.200  0.00  0.00     0.067 A 
ATOM      3  N1   11 d         -11.785 207.658 111.294  0.00  0.00    -0.171 NA
ATOM      4  N2   11 d         -11.299 207.521 112.494  0.00  0.00    -0.237 N 
ATOM      5  C5   11 d         -12.125 206.737 113.240  0.00  0.00     0.048 A 
ATOM      6  C6   11 d         -11.771 206.082 114.548  0.00  0.00     0.071 C 
ATOM      7  C7   11 d         -10.050 208.139 112.887  0.00  0.00     0.058 A 
ATOM      8  C8   11 d          -9.043 208.346 111.919  0.00  0.00     0.031 A 
ATOM      9  C9   11 d          -7.830 208.961 112.264  0.00  0.00     0.002 A 
ATOM     10  C10  11 d          -7.605 209.378 113.583  0.00  0.00     0.000 A 
ATOM     11  C11  11 d          -8.599 209.193 114.553  0.00  0.00     0.002 A 
ATOM     12  C12  11 d          -9.818 208.589 114.205  0.00  0.00     0.031 A 
ATOM     13  C13  11 d         -13.693 206.843 109.905  0.00  0.00     0.073 C 
ENDROOT
BRANCH   1  14
ATOM     14  C2   11 d         -14.374 205.526 112.764  0.00  0.00     0.159 C 
ATOM     15  O1   11 d         -14.618 204.497 112.086  0.00  0.00    -0.293 OA
ATOM     16  C3   11 d         -15.411 205.968 113.755  0.00  0.00     0.097 C 
ENDBRANCH   1  14
TORSDOF 1
ENDMDL
MODEL 6
REMARK VINA RESULT:      -7.0      3.051      4.398
REMARK  1 active torsions:
REMARK  status: ('A' for Active; 'I' for Inactive)
REMARK    1  A    between atoms: C1_1  and  C2_2 
ROOT
ATOM      1  C1   11 d          -7.281 208.998 114.310  0.00  0.00     0.059 A 
ATOM      2  C4   11 d          -6.662 208.634 113.118  0.00  0.00     0.067 A 
ATOM      3  N1   11 d          -7.614 208.225 112.261  0.00  0.00    -0.171 NA
ATOM      4  N2   11 d          -8.778 208.276 112.842  0.00  0.00    -0.237 N 
ATOM      5  C5   11 d          -8.641 208.749 114.111  0.00  0.00     0.048 A 
ATOM      6  C6   11 d          -9.756 209.257 114.986  0.00  0.00     0.071 C 
ATOM      7  C7   11 d          -9.992 207.878 112.158  0.00  0.00     0.058 A 
ATOM      8  C8   11 d         -10.081 208.033 110.758  0.00  0.00     0.031 A 
ATOM      9  C9   11 d         -11.234 207.638 110.063  0.00  0.00     0.002 A 
ATOM     10  C10  11 d         -12.317 207.082 110.759  0.00  0.00     0.000 A 
ATOM     11  C11  11 d         -12.238 206.907 112.148  0.00  0.00     0.002 A 
ATOM     12  C12  11 d         -11.080 207.292 112.841  0.00  0.00     0.031 A 
ATOM     13  C13  11 d          -5.233 208.826 112.708  0.00  0.00     0.073 C 
ENDROOT
BRANCH   1  14
ATOM     14  C2   11 d          -6.610 209.524 115.535  0.00  0.00     0.159 C 
ATOM     15  O1   11 d          -6.705 208.892 116.616  0.00  0.00    -0.293 OA
ATOM     16  C3   11 d          -6.005 210.896 115.581  0.00  0.00     0.097 C 
ENDBRANCH   1  14
TORSDOF 1
ENDMDL
MODEL 7
REMARK VINA RESULT:      -7.0      2.813      6.451
REMARK  1 active torsions:
REMARK  status: ('A' for Active; 'I' for Inactive)
REMARK    1  A    between atoms: C1_1  and  C2_2 
ROOT
ATOM      1  C1   11 d         -11.521 207.880 113.920  0.00  0.00     0.059 A 
ATOM      2  C4   11 d         -11.139 207.658 112.600  0.00  0.00     0.067 A 
ATOM      3  N1   11 d          -9.842 207.992 112.478  0.00  0.00    -0.171 NA
ATOM      4  N2   11 d          -9.395 208.435 113.618  0.00  0.00    -0.237 N 
ATOM      5  C5   11 d         -10.384 208.390 114.552  0.00  0.00     0.048 A 
ATOM      6  C6   11 d         -10.193 208.504 116.041  0.00  0.00     0.071 C 
ATOM      7  C7   11 d          -8.026 208.882 113.779  0.00  0.00     0.058 A 
ATOM      8  C8   11 d          -7.010 208.300 112.990  0.00  0.00     0.031 A 
ATOM      9  C9   11 d          -5.677 208.725 113.107  0.00  0.00     0.002 A 
ATOM     10  C10  11 d          -5.342 209.738 114.017  0.00  0.00     0.000 A 
ATOM     11  C11  11 d          -6.341 210.335 114.797  0.00  0.00     0.002 A 
ATOM     12  C12  11 d          -7.675 209.918 114.671  0.00  0.00     0.031 A 
ATOM     13  C13  11 d         -11.907 206.982 111.504  0.00  0.00     0.073 C 
ENDROOT
BRANCH   1  14
ATOM     14  C2   11 d         -12.870 207.636 114.508  0.00  0.00     0.159 C 
ATOM     15  O1   11 d         -13.255 206.458 114.713  0.00  0.00    -0.293 OA
ATOM     16  C3   11 d         -13.879 208.735 114.665  0.00  0.00     0.097 C 
ENDBRANCH   1  14
TORSDOF 1
ENDMDL
MODEL 8
REMARK VINA RESULT:      -6.5      2.569      3.907
REMARK  1 active torsions:
REMARK  status: ('A' for Active; 'I' for Inactive)
REMARK    1  A    between atoms: C1_1  and  C2_2 
ROOT
ATOM      1  C1   11 d         -10.253 208.154 113.069  0.00  0.00     0.059 A 
ATOM      2  C4   11 d          -9.983 208.496 114.391  0.00  0.00     0.067 A 
ATOM      3  N1   11 d         -10.858 207.847 115.178  0.00  0.00    -0.171 NA
ATOM      4  N2   11 d         -11.675 207.149 114.443  0.00  0.00    -0.237 N 
ATOM      5  C5   11 d         -11.353 207.294 113.128  0.00  0.00     0.048 A 
ATOM      6  C6   11 d         -11.834 206.418 112.003  0.00  0.00     0.071 C 
ATOM      7  C7   11 d         -12.738 206.354 115.025  0.00  0.00     0.058 A 
ATOM      8  C8   11 d         -12.564 205.800 116.312  0.00  0.00     0.031 A 
ATOM      9  C9   11 d         -13.581 205.043 116.912  0.00  0.00     0.002 A 
ATOM     10  C10  11 d         -14.789 204.828 116.233  0.00  0.00     0.000 A 
ATOM     11  C11  11 d         -14.983 205.384 114.961  0.00  0.00     0.002 A 
ATOM     12  C12  11 d         -13.969 206.151 114.366  0.00  0.00     0.031 A 
ATOM     13  C13  11 d          -8.823 209.273 114.939  0.00  0.00     0.073 C 
ENDROOT
BRANCH   1  14
ATOM     14  C2   11 d          -9.521 208.632 111.860  0.00  0.00     0.159 C 
ATOM     15  O1   11 d         -10.161 208.913 110.817  0.00  0.00    -0.293 OA
ATOM     16  C3   11 d          -8.024 208.583 111.768  0.00  0.00     0.097 C 
ENDBRANCH   1  14
TORSDOF 1
ENDMDL
MODEL 9
REMARK VINA RESULT:      -6.4      3.069      6.870
REMARK  1 active torsions:
REMARK  status: ('A' for Active; 'I' for Inactive)
REMARK    1  A    between atoms: C1_1  and  C2_2 
ROOT
ATOM      1  C1   11 d         -11.295 207.876 114.178  0.00  0.00     0.059 A 
ATOM      2  C4   11 d         -10.952 208.052 115.515  0.00  0.00     0.067 A 
ATOM      3  N1   11 d          -9.677 208.477 115.567  0.00  0.00    -0.171 NA
ATOM      4  N2   11 d          -9.189 208.547 114.362  0.00  0.00    -0.237 N 
ATOM      5  C5   11 d         -10.141 208.191 113.456  0.00  0.00     0.048 A 
ATOM      6  C6   11 d         -10.083 208.447 111.974  0.00  0.00     0.071 C 
ATOM      7  C7   11 d          -7.824 208.965 114.115  0.00  0.00     0.058 A 
ATOM      8  C8   11 d          -7.205 209.872 115.001  0.00  0.00     0.031 A 
ATOM      9  C9   11 d          -5.877 210.280 114.801  0.00  0.00     0.002 A 
ATOM     10  C10  11 d          -5.149 209.786 113.709  0.00  0.00     0.000 A 
ATOM     11  C11  11 d          -5.744 208.874 112.828  0.00  0.00     0.002 A 
ATOM     12  C12  11 d          -7.069 208.457 113.036  0.00  0.00     0.031 A 
ATOM     13  C13  11 d         -11.838 208.001 116.723  0.00  0.00     0.073 C 
ENDROOT
BRANCH   1  14
ATOM     14  C2   11 d         -12.616 207.427 113.651  0.00  0.00     0.159 C 
ATOM     15  O1   11 d         -13.540 208.264 113.493  0.00  0.00    -0.293 OA
ATOM     16  C3   11 d         -12.961 205.974 113.506  0.00  0.00     0.097 C 
ENDBRANCH   1  14
TORSDOF 1
ENDMDL
MODEL 10
REMARK VINA RESULT:      -6.4      1.669      3.173
REMARK  1 active torsions:
REMARK  status: ('A' for Active; 'I' for Inactive)
REMARK    1  A    between atoms: C1_1  and  C2_2 
ROOT
ATOM      1  C1   11 d         -10.179 208.416 115.385  0.00  0.00     0.059 A 
ATOM      2  C4   11 d         -10.912 208.346 116.566  0.00  0.00     0.067 A 
ATOM      3  N1   11 d         -12.136 207.874 116.271  0.00  0.00    -0.171 NA
ATOM      4  N2   11 d         -12.231 207.674 114.987  0.00  0.00    -0.237 N 
ATOM      5  C5   11 d         -11.053 207.988 114.382  0.00  0.00     0.048 A 
ATOM      6  C6   11 d         -10.650 207.598 112.985  0.00  0.00     0.071 C 
ATOM      7  C7   11 d         -13.449 207.178 114.380  0.00  0.00     0.058 A 
ATOM      8  C8   11 d         -14.298 206.328 115.122  0.00  0.00     0.031 A 
ATOM      9  C9   11 d         -15.495 205.848 114.569  0.00  0.00     0.002 A 
ATOM     10  C10  11 d         -15.861 206.210 113.265  0.00  0.00     0.000 A 
ATOM     11  C11  11 d         -15.036 207.064 112.521  0.00  0.00     0.002 A 
ATOM     12  C12  11 d         -13.845 207.555 113.078  0.00  0.00     0.031 A 
ATOM     13  C13  11 d         -10.439 208.543 117.975  0.00  0.00     0.073 C 
ENDROOT
BRANCH   1  14
ATOM     14  C2   11 d          -8.765 208.871 115.242  0.00  0.00     0.159 C 
ATOM     15  O1   11 d          -7.928 208.590 116.135  0.00  0.00    -0.293 OA
ATOM     16  C3   11 d          -8.348 209.843 114.178  0.00  0.00     0.097 C 
ENDBRANCH   1  14
TORSDOF 1
ENDMDL
