MODEL 1
REMARK VINA RESULT:      -8.4      0.000      0.000
REMARK  5 active torsions:
REMARK  status: ('A' for Active; 'I' for Inactive)
REMARK    1  A    between atoms: C2_2  and  C10_12 
REMARK    2  A    between atoms: C3_3  and  O2_11 
REMARK    3  A    between atoms: C10_12  and  C11_13 
REMARK    4  A    between atoms: C10_12  and  C17_19 
REMARK    5  A    between atoms: C17_19  and  C18_20 
ROOT
ATOM      1  C1   11 d         -13.878 208.643 114.392  0.00  0.00     0.298 A 
ATOM      2  C2   11 d         -12.668 207.905 114.382  0.00  0.00     0.060 A 
ATOM      3  C3   11 d         -12.648 206.709 113.613  0.00  0.00     0.091 A 
ATOM      4  C4   11 d         -13.796 206.308 112.903  0.00  0.00     0.032 A 
ATOM      5  C5   11 d         -14.939 207.140 112.962  0.00  0.00     0.092 A 
ATOM      6  O1   11 d         -14.921 208.239 113.691  0.00  0.00    -0.274 OA
ATOM      7  C6   11 d         -16.098 206.797 112.248  0.00  0.00     0.038 A 
ATOM      8  C7   11 d         -16.128 205.625 111.477  0.00  0.00     0.003 A 
ATOM      9  C8   11 d         -15.003 204.790 111.424  0.00  0.00     0.001 A 
ATOM     10  C9   11 d         -13.841 205.124 112.136  0.00  0.00     0.017 A 
ATOM     11  O4   11 d         -13.975 209.706 115.054  0.00  0.00    -0.259 OA
ENDROOT
BRANCH   2  12
ATOM     12  C10  11 d         -11.440 208.381 115.176  0.00  0.00     0.067 C 
BRANCH  12  13
ATOM     13  C11  11 d         -10.188 208.624 114.317  0.00  0.00    -0.049 A 
ATOM     14  C12  11 d          -8.998 209.063 114.945  0.00  0.00     0.008 A 
ATOM     15  C13  11 d          -7.827 209.293 114.208  0.00  0.00     0.001 A 
ATOM     16  C14  11 d          -7.821 209.106 112.822  0.00  0.00     0.000 A 
ATOM     17  C15  11 d          -8.992 208.702 112.170  0.00  0.00     0.001 A 
ATOM     18  C16  11 d         -10.163 208.473 112.906  0.00  0.00     0.008 A 
ENDBRANCH  12  13
BRANCH  12  19
ATOM     19  C17  11 d         -11.184 207.380 116.344  0.00  0.00     0.092 C 
BRANCH  19  20
ATOM     20  C18  11 d         -11.755 207.738 117.699  0.00  0.00     0.124 C 
ATOM     21  O3   11 d         -10.983 208.085 118.628  0.00  0.00    -0.298 OA
ATOM     22  C19  11 d         -13.174 207.404 118.048  0.00  0.00     0.091 C 
ENDBRANCH  19  20
ENDBRANCH  12  19
ENDBRANCH   2  12
BRANCH   3  23
ATOM     23  O2   11 d         -11.519 205.850 113.651  0.00  0.00    -0.359 OA
ATOM     24  H5   11 d         -11.883 204.902 113.852  0.00  0.00     0.217 HD
ENDBRANCH   3  23
TORSDOF 5
ENDMDL
MODEL 2
REMARK VINA RESULT:      -8.1      1.926      4.130
REMARK  5 active torsions:
REMARK  status: ('A' for Active; 'I' for Inactive)
REMARK    1  A    between atoms: C2_2  and  C10_12 
REMARK    2  A    between atoms: C3_3  and  O2_11 
REMARK    3  A    between atoms: C10_12  and  C11_13 
REMARK    4  A    between atoms: C10_12  and  C17_19 
REMARK    5  A    between atoms: C17_19  and  C18_20 
ROOT
ATOM      1  C1   11 d         -11.389 207.278 112.107  0.00  0.00     0.298 A 
ATOM      2  C2   11 d         -11.916 207.377 113.419  0.00  0.00     0.060 A 
ATOM      3  C3   11 d         -13.330 207.325 113.553  0.00  0.00     0.091 A 
ATOM      4  C4   11 d         -14.142 207.179 112.411  0.00  0.00     0.032 A 
ATOM      5  C5   11 d         -13.505 207.058 111.154  0.00  0.00     0.092 A 
ATOM      6  O1   11 d         -12.190 207.117 111.069  0.00  0.00    -0.274 OA
ATOM      7  C6   11 d         -14.269 206.881 109.990  0.00  0.00     0.038 A 
ATOM      8  C7   11 d         -15.669 206.827 110.070  0.00  0.00     0.003 A 
ATOM      9  C8   11 d         -16.308 206.957 111.311  0.00  0.00     0.001 A 
ATOM     10  C9   11 d         -15.551 207.137 112.479  0.00  0.00     0.017 A 
ATOM     11  O4   11 d         -10.150 207.323 111.908  0.00  0.00    -0.259 OA
ENDROOT
BRANCH   2  12
ATOM     12  C10  11 d         -10.990 207.540 114.636  0.00  0.00     0.067 C 
BRANCH  12  13
ATOM     13  C11  11 d         -11.523 206.893 115.926  0.00  0.00    -0.049 A 
ATOM     14  C12  11 d         -11.620 207.678 117.100  0.00  0.00     0.008 A 
ATOM     15  C13  11 d         -12.105 207.137 118.300  0.00  0.00     0.001 A 
ATOM     16  C14  11 d         -12.489 205.794 118.360  0.00  0.00     0.000 A 
ATOM     17  C15  11 d         -12.373 204.986 117.224  0.00  0.00     0.001 A 
ATOM     18  C16  11 d         -11.888 205.525 116.024  0.00  0.00     0.008 A 
ENDBRANCH  12  13
BRANCH  12  19
ATOM     19  C17  11 d         -10.663 209.054 114.814  0.00  0.00     0.092 C 
BRANCH  19  20
ATOM     20  C18  11 d          -9.216 209.470 114.665  0.00  0.00     0.124 C 
ATOM     21  O3   11 d          -8.856 210.123 113.654  0.00  0.00    -0.298 OA
ATOM     22  C19  11 d          -8.151 208.872 115.535  0.00  0.00     0.091 C 
ENDBRANCH  19  20
ENDBRANCH  12  19
ENDBRANCH   2  12
BRANCH   3  23
ATOM     23  O2   11 d         -13.941 207.543 114.815  0.00  0.00    -0.359 OA
ATOM     24  H5   11 d         -13.543 208.426 115.181  0.00  0.00     0.217 HD
ENDBRANCH   3  23
TORSDOF 5
ENDMDL
MODEL 3
REMARK VINA RESULT:      -8.1      2.197      4.935
REMARK  5 active torsions:
REMARK  status: ('A' for Active; 'I' for Inactive)
REMARK    1  A    between atoms: C2_2  and  C10_12 
REMARK    2  A    between atoms: C3_3  and  O2_11 
REMARK    3  A    between atoms: C10_12  and  C11_13 
REMARK    4  A    between atoms: C10_12  and  C17_19 
REMARK    5  A    between atoms: C17_19  and  C18_20 
ROOT
ATOM      1  C1   11 d         -12.140 206.120 113.785  0.00  0.00     0.298 A 
ATOM      2  C2   11 d         -13.089 206.207 114.834  0.00  0.00     0.060 A 
ATOM      3  C3   11 d         -14.449 206.391 114.461  0.00  0.00     0.091 A 
ATOM      4  C4   11 d         -14.801 206.476 113.100  0.00  0.00     0.032 A 
ATOM      5  C5   11 d         -13.773 206.344 112.138  0.00  0.00     0.092 A 
ATOM      6  O1   11 d         -12.522 206.180 112.523  0.00  0.00    -0.274 OA
ATOM      7  C6   11 d         -14.079 206.392 110.769  0.00  0.00     0.038 A 
ATOM      8  C7   11 d         -15.406 206.575 110.350  0.00  0.00     0.003 A 
ATOM      9  C8   11 d         -16.428 206.718 111.299  0.00  0.00     0.001 A 
ATOM     10  C9   11 d         -16.131 206.673 112.670  0.00  0.00     0.017 A 
ATOM     11  O4   11 d         -10.919 205.964 114.036  0.00  0.00    -0.259 OA
ENDROOT
BRANCH   2  12
ATOM     12  C10  11 d         -12.657 206.113 116.307  0.00  0.00     0.067 C 
BRANCH  12  13
ATOM     13  C11  11 d         -13.548 205.204 117.171  0.00  0.00    -0.049 A 
ATOM     14  C12  11 d         -13.888 205.619 118.480  0.00  0.00     0.008 A 
ATOM     15  C13  11 d         -14.703 204.831 119.306  0.00  0.00     0.001 A 
ATOM     16  C14  11 d         -15.185 203.600 118.848  0.00  0.00     0.000 A 
ATOM     17  C15  11 d         -14.839 203.150 117.569  0.00  0.00     0.001 A 
ATOM     18  C16  11 d         -14.024 203.937 116.744  0.00  0.00     0.008 A 
ENDBRANCH  12  13
BRANCH  12  19
ATOM     19  C17  11 d         -12.532 207.557 116.883  0.00  0.00     0.092 C 
BRANCH  19  20
ATOM     20  C18  11 d         -11.176 207.977 117.406  0.00  0.00     0.124 C 
ATOM     21  O3   11 d         -11.039 208.258 118.623  0.00  0.00    -0.298 OA
ATOM     22  C19  11 d         -10.071 208.354 116.465  0.00  0.00     0.091 C 
ENDBRANCH  19  20
ENDBRANCH  12  19
ENDBRANCH   2  12
BRANCH   3  23
ATOM     23  O2   11 d         -15.441 206.613 115.451  0.00  0.00    -0.359 OA
ATOM     24  H5   11 d         -15.393 207.620 115.689  0.00  0.00     0.217 HD
ENDBRANCH   3  23
TORSDOF 5
ENDMDL
MODEL 4
REMARK VINA RESULT:      -8.1      1.972      5.466
REMARK  5 active torsions:
REMARK  status: ('A' for Active; 'I' for Inactive)
REMARK    1  A    between atoms: C2_2  and  C10_12 
REMARK    2  A    between atoms: C3_3  and  O2_11 
REMARK    3  A    between atoms: C10_12  and  C11_13 
REMARK    4  A    between atoms: C10_12  and  C17_19 
REMARK    5  A    between atoms: C17_19  and  C18_20 
ROOT
ATOM      1  C1   11 d         -12.329 207.946 115.827  0.00  0.00     0.298 A 
ATOM      2  C2   11 d         -12.823 207.129 114.779  0.00  0.00     0.060 A 
ATOM      3  C3   11 d         -13.553 205.968 115.156  0.00  0.00     0.091 A 
ATOM      4  C4   11 d         -13.760 205.676 116.518  0.00  0.00     0.032 A 
ATOM      5  C5   11 d         -13.247 206.581 117.477  0.00  0.00     0.092 A 
ATOM      6  O1   11 d         -12.569 207.644 117.090  0.00  0.00    -0.274 OA
ATOM      7  C6   11 d         -13.453 206.348 118.846  0.00  0.00     0.038 A 
ATOM      8  C7   11 d         -14.165 205.215 119.268  0.00  0.00     0.003 A 
ATOM      9  C8   11 d         -14.666 204.308 118.323  0.00  0.00     0.001 A 
ATOM     10  C9   11 d         -14.463 204.532 116.953  0.00  0.00     0.017 A 
ATOM     11  O4   11 d         -11.668 208.984 115.573  0.00  0.00    -0.259 OA
ENDROOT
BRANCH   2  12
ATOM     12  C10  11 d         -12.569 207.486 113.306  0.00  0.00     0.067 C 
BRANCH  12  13
ATOM     13  C11  11 d         -13.738 207.151 112.364  0.00  0.00    -0.049 A 
ATOM     14  C12  11 d         -13.480 206.420 111.180  0.00  0.00     0.008 A 
ATOM     15  C13  11 d         -14.511 206.084 110.291  0.00  0.00     0.001 A 
ATOM     16  C14  11 d         -15.825 206.486 110.555  0.00  0.00     0.000 A 
ATOM     17  C15  11 d         -16.104 207.237 111.702  0.00  0.00     0.001 A 
ATOM     18  C16  11 d         -15.073 207.574 112.591  0.00  0.00     0.008 A 
ENDBRANCH  12  13
BRANCH  12  19
ATOM     19  C17  11 d         -11.228 206.827 112.858  0.00  0.00     0.092 C 
BRANCH  19  20
ATOM     20  C18  11 d         -10.111 207.755 112.432  0.00  0.00     0.124 C 
ATOM     21  O3   11 d          -9.305 208.193 113.291  0.00  0.00    -0.298 OA
ATOM     22  C19  11 d         -10.119 208.398 111.078  0.00  0.00     0.091 C 
ENDBRANCH  19  20
ENDBRANCH  12  19
ENDBRANCH   2  12
BRANCH   3  23
ATOM     23  O2   11 d         -13.973 205.034 114.174  0.00  0.00    -0.359 OA
ATOM     24  H5   11 d         -14.093 204.130 114.666  0.00  0.00     0.217 HD
ENDBRANCH   3  23
TORSDOF 5
ENDMDL
MODEL 5
REMARK VINA RESULT:      -8.1      1.838      5.654
REMARK  5 active torsions:
REMARK  status: ('A' for Active; 'I' for Inactive)
REMARK    1  A    between atoms: C2_2  and  C10_12 
REMARK    2  A    between atoms: C3_3  and  O2_11 
REMARK    3  A    between atoms: C10_12  and  C11_13 
REMARK    4  A    between atoms: C10_12  and  C17_19 
REMARK    5  A    between atoms: C17_19  and  C18_20 
ROOT
ATOM      1  C1   11 d         -11.608 207.846 115.387  0.00  0.00     0.298 A 
ATOM      2  C2   11 d         -11.898 207.035 114.261  0.00  0.00     0.060 A 
ATOM      3  C3   11 d         -11.012 207.128 113.153  0.00  0.00     0.091 A 
ATOM      4  C4   11 d          -9.904 207.996 113.207  0.00  0.00     0.032 A 
ATOM      5  C5   11 d          -9.695 208.734 114.395  0.00  0.00     0.092 A 
ATOM      6  O1   11 d         -10.542 208.626 115.400  0.00  0.00    -0.274 OA
ATOM      7  C6   11 d          -8.589 209.590 114.508  0.00  0.00     0.038 A 
ATOM      8  C7   11 d          -7.687 209.719 113.440  0.00  0.00     0.003 A 
ATOM      9  C8   11 d          -7.894 208.998 112.255  0.00  0.00     0.001 A 
ATOM     10  C9   11 d          -9.000 208.142 112.133  0.00  0.00     0.017 A 
ATOM     11  O4   11 d         -12.348 207.823 116.401  0.00  0.00    -0.259 OA
ENDROOT
BRANCH   2  12
ATOM     12  C10  11 d         -13.122 206.105 114.246  0.00  0.00     0.067 C 
BRANCH  12  13
ATOM     13  C11  11 d         -14.034 206.280 113.020  0.00  0.00    -0.049 A 
ATOM     14  C12  11 d         -14.417 205.136 112.279  0.00  0.00     0.008 A 
ATOM     15  C13  11 d         -15.252 205.240 111.157  0.00  0.00     0.001 A 
ATOM     16  C14  11 d         -15.711 206.493 110.737  0.00  0.00     0.000 A 
ATOM     17  C15  11 d         -15.322 207.644 111.432  0.00  0.00     0.001 A 
ATOM     18  C16  11 d         -14.487 207.541 112.553  0.00  0.00     0.008 A 
ENDBRANCH  12  13
BRANCH  12  19
ATOM     19  C17  11 d         -13.889 206.270 115.594  0.00  0.00     0.092 C 
BRANCH  19  20
ATOM     20  C18  11 d         -14.574 205.042 116.155  0.00  0.00     0.124 C 
ATOM     21  O3   11 d         -15.677 204.673 115.680  0.00  0.00    -0.298 OA
ATOM     22  C19  11 d         -14.124 204.435 117.450  0.00  0.00     0.091 C 
ENDBRANCH  19  20
ENDBRANCH  12  19
ENDBRANCH   2  12
BRANCH   3  23
ATOM     23  O2   11 d         -11.302 206.445 111.943  0.00  0.00    -0.359 OA
ATOM     24  H5   11 d         -10.659 206.835 111.230  0.00  0.00     0.217 HD
ENDBRANCH   3  23
TORSDOF 5
ENDMDL
MODEL 6
REMARK VINA RESULT:      -8.0      1.987      5.588
REMARK  5 active torsions:
REMARK  status: ('A' for Active; 'I' for Inactive)
REMARK    1  A    between atoms: C2_2  and  C10_12 
REMARK    2  A    between atoms: C3_3  and  O2_11 
REMARK    3  A    between atoms: C10_12  and  C11_13 
REMARK    4  A    between atoms: C10_12  and  C17_19 
REMARK    5  A    between atoms: C17_19  and  C18_20 
ROOT
ATOM      1  C1   11 d         -13.870 205.547 114.646  0.00  0.00     0.298 A 
ATOM      2  C2   11 d         -13.220 206.806 114.650  0.00  0.00     0.060 A 
ATOM      3  C3   11 d         -13.008 207.419 115.915  0.00  0.00     0.091 A 
ATOM      4  C4   11 d         -13.435 206.774 117.092  0.00  0.00     0.032 A 
ATOM      5  C5   11 d         -14.045 205.504 116.969  0.00  0.00     0.092 A 
ATOM      6  O1   11 d         -14.230 204.969 115.778  0.00  0.00    -0.274 OA
ATOM      7  C6   11 d         -14.461 204.808 118.115  0.00  0.00     0.038 A 
ATOM      8  C7   11 d         -14.275 205.372 119.387  0.00  0.00     0.003 A 
ATOM      9  C8   11 d         -13.682 206.636 119.514  0.00  0.00     0.001 A 
ATOM     10  C9   11 d         -13.266 207.339 118.374  0.00  0.00     0.017 A 
ATOM     11  O4   11 d         -14.099 204.946 113.566  0.00  0.00    -0.259 OA
ENDROOT
BRANCH   2  12
ATOM     12  C10  11 d         -12.775 207.475 113.338  0.00  0.00     0.067 C 
BRANCH  12  13
ATOM     13  C11  11 d         -13.759 207.291 112.170  0.00  0.00    -0.049 A 
ATOM     14  C12  11 d         -13.255 206.929 110.898  0.00  0.00     0.008 A 
ATOM     15  C13  11 d         -14.110 206.743 109.802  0.00  0.00     0.001 A 
ATOM     16  C14  11 d         -15.489 206.931 109.946  0.00  0.00     0.000 A 
ATOM     17  C15  11 d         -16.011 207.320 111.185  0.00  0.00     0.001 A 
ATOM     18  C16  11 d         -15.157 207.507 112.281  0.00  0.00     0.008 A 
ENDBRANCH  12  13
BRANCH  12  19
ATOM     19  C17  11 d         -11.335 206.986 112.994  0.00  0.00     0.092 C 
BRANCH  19  20
ATOM     20  C18  11 d         -10.211 207.989 113.143  0.00  0.00     0.124 C 
ATOM     21  O3   11 d         -10.004 208.532 114.257  0.00  0.00    -0.298 OA
ATOM     22  C19  11 d          -9.537 208.572 111.937  0.00  0.00     0.091 C 
ENDBRANCH  19  20
ENDBRANCH  12  19
ENDBRANCH   2  12
BRANCH   3  23
ATOM     23  O2   11 d         -12.479 208.734 115.996  0.00  0.00    -0.359 OA
ATOM     24  H5   11 d         -13.273 209.351 116.244  0.00  0.00     0.217 HD
ENDBRANCH   3  23
TORSDOF 5
ENDMDL
MODEL 7
REMARK VINA RESULT:      -8.0      1.877      5.038
REMARK  5 active torsions:
REMARK  status: ('A' for Active; 'I' for Inactive)
REMARK    1  A    between atoms: C2_2  and  C10_12 
REMARK    2  A    between atoms: C3_3  and  O2_11 
REMARK    3  A    between atoms: C10_12  and  C11_13 
REMARK    4  A    between atoms: C10_12  and  C17_19 
REMARK    5  A    between atoms: C17_19  and  C18_20 
ROOT
ATOM      1  C1   11 d         -14.345 207.338 114.739  0.00  0.00     0.298 A 
ATOM      2  C2   11 d         -13.276 206.535 114.267  0.00  0.00     0.060 A 
ATOM      3  C3   11 d         -12.420 205.959 115.245  0.00  0.00     0.091 A 
ATOM      4  C4   11 d         -12.655 206.194 116.614  0.00  0.00     0.032 A 
ATOM      5  C5   11 d         -13.771 206.986 116.970  0.00  0.00     0.092 A 
ATOM      6  O1   11 d         -14.539 207.509 116.034  0.00  0.00    -0.274 OA
ATOM      7  C6   11 d         -14.064 207.224 118.322  0.00  0.00     0.038 A 
ATOM      8  C7   11 d         -13.247 206.679 119.325  0.00  0.00     0.003 A 
ATOM      9  C8   11 d         -12.132 205.903 118.978  0.00  0.00     0.001 A 
ATOM     10  C9   11 d         -11.832 205.662 117.629  0.00  0.00     0.017 A 
ATOM     11  O4   11 d         -15.139 207.886 113.935  0.00  0.00    -0.259 OA
ENDROOT
BRANCH   2  12
ATOM     12  C10  11 d         -13.057 206.311 112.762  0.00  0.00     0.067 C 
BRANCH  12  13
ATOM     13  C11  11 d         -11.892 207.119 112.165  0.00  0.00    -0.049 A 
ATOM     14  C12  11 d         -11.725 207.150 110.760  0.00  0.00     0.008 A 
ATOM     15  C13  11 d         -10.683 207.876 110.166  0.00  0.00     0.001 A 
ATOM     16  C14  11 d          -9.772 208.577 110.963  0.00  0.00     0.000 A 
ATOM     17  C15  11 d          -9.894 208.538 112.356  0.00  0.00     0.001 A 
ATOM     18  C16  11 d         -10.934 207.811 112.951  0.00  0.00     0.008 A 
ENDBRANCH  12  13
BRANCH  12  19
ATOM     19  C17  11 d         -14.405 206.561 112.019  0.00  0.00     0.092 C 
BRANCH  19  20
ATOM     20  C18  11 d         -15.184 205.344 111.570  0.00  0.00     0.124 C 
ATOM     21  O3   11 d         -16.420 205.280 111.787  0.00  0.00    -0.298 OA
ATOM     22  C19  11 d         -14.475 204.091 111.148  0.00  0.00     0.091 C 
ENDBRANCH  19  20
ENDBRANCH  12  19
ENDBRANCH   2  12
BRANCH   3  23
ATOM     23  O2   11 d         -11.257 205.248 114.852  0.00  0.00    -0.359 OA
ATOM     24  H5   11 d         -11.408 204.264 115.139  0.00  0.00     0.217 HD
ENDBRANCH   3  23
TORSDOF 5
ENDMDL
MODEL 8
REMARK VINA RESULT:      -7.9      1.681      3.762
REMARK  5 active torsions:
REMARK  status: ('A' for Active; 'I' for Inactive)
REMARK    1  A    between atoms: C2_2  and  C10_12 
REMARK    2  A    between atoms: C3_3  and  O2_11 
REMARK    3  A    between atoms: C10_12  and  C11_13 
REMARK    4  A    between atoms: C10_12  and  C17_19 
REMARK    5  A    between atoms: C17_19  and  C18_20 
ROOT
ATOM      1  C1   11 d         -13.370 208.189 114.446  0.00  0.00     0.298 A 
ATOM      2  C2   11 d         -12.162 207.586 114.015  0.00  0.00     0.060 A 
ATOM      3  C3   11 d         -12.195 206.890 112.775  0.00  0.00     0.091 A 
ATOM      4  C4   11 d         -13.391 206.828 112.033  0.00  0.00     0.032 A 
ATOM      5  C5   11 d         -14.527 207.494 112.547  0.00  0.00     0.092 A 
ATOM      6  O1   11 d         -14.460 208.124 113.704  0.00  0.00    -0.274 OA
ATOM      7  C6   11 d         -15.734 207.485 111.830  0.00  0.00     0.038 A 
ATOM      8  C7   11 d         -15.818 206.810 110.602  0.00  0.00     0.003 A 
ATOM      9  C8   11 d         -14.698 206.137 110.093  0.00  0.00     0.001 A 
ATOM     10  C9   11 d         -13.488 206.140 110.804  0.00  0.00     0.017 A 
ATOM     11  O4   11 d         -13.421 208.815 115.534  0.00  0.00    -0.259 OA
ENDROOT
BRANCH   2  12
ATOM     12  C10  11 d         -10.881 207.678 114.860  0.00  0.00     0.067 C 
BRANCH  12  13
ATOM     13  C11  11 d         -11.033 207.147 116.296  0.00  0.00    -0.049 A 
ATOM     14  C12  11 d         -11.815 205.989 116.523  0.00  0.00     0.008 A 
ATOM     15  C13  11 d         -11.979 205.462 117.812  0.00  0.00     0.001 A 
ATOM     16  C14  11 d         -11.379 206.089 118.909  0.00  0.00     0.000 A 
ATOM     17  C15  11 d         -10.627 207.253 118.719  0.00  0.00     0.001 A 
ATOM     18  C16  11 d         -10.463 207.781 117.431  0.00  0.00     0.008 A 
ENDBRANCH  12  13
BRANCH  12  19
ATOM     19  C17  11 d         -10.358 209.146 114.813  0.00  0.00     0.092 C 
BRANCH  19  20
ATOM     20  C18  11 d          -9.100 209.406 114.015  0.00  0.00     0.124 C 
ATOM     21  O3   11 d          -8.207 210.156 114.485  0.00  0.00    -0.298 OA
ATOM     22  C19  11 d          -9.021 209.040 112.563  0.00  0.00     0.091 C 
ENDBRANCH  19  20
ENDBRANCH  12  19
ENDBRANCH   2  12
BRANCH   3  23
ATOM     23  O2   11 d         -11.065 206.154 112.334  0.00  0.00    -0.359 OA
ATOM     24  H5   11 d         -11.290 205.156 112.492  0.00  0.00     0.217 HD
ENDBRANCH   3  23
TORSDOF 5
ENDMDL
MODEL 9
REMARK VINA RESULT:      -7.8      1.908      4.428
REMARK  5 active torsions:
REMARK  status: ('A' for Active; 'I' for Inactive)
REMARK    1  A    between atoms: C2_2  and  C10_12 
REMARK    2  A    between atoms: C3_3  and  O2_11 
REMARK    3  A    between atoms: C10_12  and  C11_13 
REMARK    4  A    between atoms: C10_12  and  C17_19 
REMARK    5  A    between atoms: C17_19  and  C18_20 
ROOT
ATOM      1  C1   11 d         -14.311 207.371 114.862  0.00  0.00     0.298 A 
ATOM      2  C2   11 d         -12.991 206.858 114.894  0.00  0.00     0.060 A 
ATOM      3  C3   11 d         -12.385 206.555 113.644  0.00  0.00     0.091 A 
ATOM      4  C4   11 d         -13.094 206.771 112.447  0.00  0.00     0.032 A 
ATOM      5  C5   11 d         -14.396 207.317 112.534  0.00  0.00     0.092 A 
ATOM      6  O1   11 d         -14.927 207.579 113.712  0.00  0.00    -0.274 OA
ATOM      7  C6   11 d         -15.131 207.577 111.367  0.00  0.00     0.038 A 
ATOM      8  C7   11 d         -14.577 207.293 110.109  0.00  0.00     0.003 A 
ATOM      9  C8   11 d         -13.292 206.740 110.016  0.00  0.00     0.001 A 
ATOM     10  C9   11 d         -12.551 206.475 111.178  0.00  0.00     0.017 A 
ATOM     11  O4   11 d         -14.915 207.656 115.926  0.00  0.00    -0.259 OA
ENDROOT
BRANCH   2  12
ATOM     12  C10  11 d         -12.257 206.635 116.227  0.00  0.00     0.067 C 
BRANCH  12  13
ATOM     13  C11  11 d         -13.098 205.921 117.300  0.00  0.00    -0.049 A 
ATOM     14  C12  11 d         -13.179 206.482 118.596  0.00  0.00     0.008 A 
ATOM     15  C13  11 d         -13.937 205.874 119.608  0.00  0.00     0.001 A 
ATOM     16  C14  11 d         -14.619 204.680 119.352  0.00  0.00     0.000 A 
ATOM     17  C15  11 d         -14.531 204.086 118.088  0.00  0.00     0.001 A 
ATOM     18  C16  11 d         -13.773 204.693 117.077  0.00  0.00     0.008 A 
ENDBRANCH  12  13
BRANCH  12  19
ATOM     19  C17  11 d         -11.692 208.003 116.719  0.00  0.00     0.092 C 
BRANCH  19  20
ATOM     20  C18  11 d         -10.250 208.316 116.381  0.00  0.00     0.124 C 
ATOM     21  O3   11 d          -9.359 208.164 117.254  0.00  0.00    -0.298 OA
ATOM     22  C19  11 d          -9.900 209.082 115.141  0.00  0.00     0.091 C 
ENDBRANCH  19  20
ENDBRANCH  12  19
ENDBRANCH   2  12
BRANCH   3  23
ATOM     23  O2   11 d         -11.116 205.922 113.596  0.00  0.00    -0.359 OA
ATOM     24  H5   11 d         -10.834 205.914 112.599  0.00  0.00     0.217 HD
ENDBRANCH   3  23
TORSDOF 5
ENDMDL
MODEL 10
REMARK VINA RESULT:      -7.7      1.650      6.229
REMARK  5 active torsions:
REMARK  status: ('A' for Active; 'I' for Inactive)
REMARK    1  A    between atoms: C2_2  and  C10_12 
REMARK    2  A    between atoms: C3_3  and  O2_11 
REMARK    3  A    between atoms: C10_12  and  C11_13 
REMARK    4  A    between atoms: C10_12  and  C17_19 
REMARK    5  A    between atoms: C17_19  and  C18_20 
ROOT
ATOM      1  C1   11 d         -11.118 207.413 112.300  0.00  0.00     0.298 A 
ATOM      2  C2   11 d         -11.608 207.836 113.562  0.00  0.00     0.060 A 
ATOM      3  C3   11 d         -10.703 208.542 114.401  0.00  0.00     0.091 A 
ATOM      4  C4   11 d          -9.388 208.795 113.966  0.00  0.00     0.032 A 
ATOM      5  C5   11 d          -9.018 208.352 112.674  0.00  0.00     0.092 A 
ATOM      6  O1   11 d          -9.883 207.695 111.926  0.00  0.00    -0.274 OA
ATOM      7  C6   11 d          -7.728 208.606 112.185  0.00  0.00     0.038 A 
ATOM      8  C7   11 d          -6.798 209.297 112.976  0.00  0.00     0.003 A 
ATOM      9  C8   11 d          -7.153 209.728 114.263  0.00  0.00     0.001 A 
ATOM     10  C9   11 d          -8.441 209.477 114.761  0.00  0.00     0.017 A 
ATOM     11  O4   11 d         -11.856 206.778 111.506  0.00  0.00    -0.259 OA
ENDROOT
BRANCH   2  12
ATOM     12  C10  11 d         -13.051 207.534 113.996  0.00  0.00     0.067 C 
BRANCH  12  13
ATOM     13  C11  11 d         -13.170 206.868 115.377  0.00  0.00    -0.049 A 
ATOM     14  C12  11 d         -12.458 205.670 115.626  0.00  0.00     0.008 A 
ATOM     15  C13  11 d         -12.527 205.027 116.870  0.00  0.00     0.001 A 
ATOM     16  C14  11 d         -13.323 205.556 117.892  0.00  0.00     0.000 A 
ATOM     17  C15  11 d         -14.062 206.722 117.663  0.00  0.00     0.001 A 
ATOM     18  C16  11 d         -13.995 207.365 116.419  0.00  0.00     0.008 A 
ENDBRANCH  12  13
BRANCH  12  19
ATOM     19  C17  11 d         -13.748 206.711 112.869  0.00  0.00     0.092 C 
BRANCH  19  20
ATOM     20  C18  11 d         -15.172 207.084 112.520  0.00  0.00     0.124 C 
ATOM     21  O3   11 d         -16.072 206.989 113.392  0.00  0.00    -0.298 OA
ATOM     22  C19  11 d         -15.589 207.275 111.092  0.00  0.00     0.091 C 
ENDBRANCH  19  20
ENDBRANCH  12  19
ENDBRANCH   2  12
BRANCH   3  23
ATOM     23  O2   11 d         -11.075 208.890 115.726  0.00  0.00    -0.359 OA
ATOM     24  H5   11 d         -11.838 208.242 115.992  0.00  0.00     0.217 HD
ENDBRANCH   3  23
TORSDOF 5
ENDMDL
