MODEL 1
REMARK VINA RESULT:      -9.9      0.000      0.000
REMARK  3 active torsions:
REMARK  status: ('A' for Active; 'I' for Inactive)
REMARK    1  A    between atoms: C3_3  and  N1_4 
REMARK    2  A    between atoms: N1_4  and  C4_5 
REMARK    3  A    between atoms: C17_19  and  N3_20 
ROOT
ATOM      1  C1   11 d         -10.358 208.386 114.322  0.00  0.00    -0.019 A 
ATOM      2  C2   11 d         -10.832 207.646 113.242  0.00  0.00     0.073 A 
ATOM      3  C3   11 d         -12.183 206.974 113.208  0.00  0.00     0.238 C 
ATOM      4  C11  11 d         -12.745 206.893 114.655  0.00  0.00     0.040 C 
ATOM      5  C12  11 d         -12.625 208.231 115.418  0.00  0.00     0.007 C 
ATOM      6  C13  11 d         -11.159 208.694 115.557  0.00  0.00     0.042 C 
ATOM      7  N2   11 d          -9.861 207.513 112.308  0.00  0.00    -0.250 NA
ATOM      8  C14  11 d          -8.793 208.210 112.758  0.00  0.00     0.068 A 
ATOM      9  C15  11 d          -9.076 208.768 113.989  0.00  0.00     0.003 A 
ATOM     10  C16  11 d          -8.135 209.538 114.685  0.00  0.00     0.050 A 
ATOM     11  C17  11 d          -6.855 209.749 114.100  0.00  0.00     0.103 A 
ATOM     12  C18  11 d          -6.580 209.161 112.830  0.00  0.00     0.038 A 
ATOM     13  C19  11 d          -7.547 208.388 112.153  0.00  0.00     0.035 A 
ENDROOT
BRANCH   3  14
ATOM     14  N1   11 d         -13.053 207.694 112.212  0.00  0.00    -0.061 N 
ATOM     15  H2   11 d         -12.844 208.745 112.233  0.00  0.00     0.278 HD
ATOM     16  H3   11 d         -12.754 207.358 111.237  0.00  0.00     0.278 HD
BRANCH  14  17
ATOM     17  C4   11 d         -14.535 207.441 112.347  0.00  0.00     0.191 C 
ATOM     18  C5   11 d         -14.867 205.952 112.642  0.00  0.00     0.017 C 
ATOM     19  C6   11 d         -14.958 205.329 111.258  0.00  0.00     0.011 C 
ATOM     20  C10  11 d         -16.316 205.808 113.142  0.00  0.00     0.007 C 
ATOM     21  C7   11 d         -16.033 206.307 110.824  0.00  0.00    -0.012 C 
ATOM     22  C8   11 d         -15.344 207.661 111.046  0.00  0.00     0.038 C 
ATOM     23  C9   11 d         -17.131 206.078 111.874  0.00  0.00     0.005 C 
ENDBRANCH  14  17
ENDBRANCH   3  14
BRANCH  11  24
ATOM     24  N3   11 d          -5.884 210.507 114.757  0.00  0.00    -0.116 N 
ATOM     25  O1   11 d          -6.183 211.416 115.387  0.00  0.00    -0.532 OA
ATOM     26  O2   11 d          -4.657 210.324 114.526  0.00  0.00    -0.532 OA
ENDBRANCH  11  24
TORSDOF 3
ENDMDL
MODEL 2
REMARK VINA RESULT:      -8.9      3.927      7.706
REMARK  3 active torsions:
REMARK  status: ('A' for Active; 'I' for Inactive)
REMARK    1  A    between atoms: C3_3  and  N1_4 
REMARK    2  A    between atoms: N1_4  and  C4_5 
REMARK    3  A    between atoms: C17_19  and  N3_20 
ROOT
ATOM      1  C1   11 d         -11.625 207.479 114.851  0.00  0.00    -0.019 A 
ATOM      2  C2   11 d         -10.421 208.175 114.789  0.00  0.00     0.073 A 
ATOM      3  C3   11 d          -9.727 208.768 115.990  0.00  0.00     0.238 C 
ATOM      4  C11  11 d         -10.733 208.837 117.173  0.00  0.00     0.040 C 
ATOM      5  C12  11 d         -11.514 207.519 117.370  0.00  0.00     0.007 C 
ATOM      6  C13  11 d         -12.347 207.143 116.127  0.00  0.00     0.042 C 
ATOM      7  N2   11 d         -10.052 208.350 113.498  0.00  0.00    -0.250 NA
ATOM      8  C14  11 d         -10.980 207.722 112.741  0.00  0.00     0.068 A 
ATOM      9  C15  11 d         -11.953 207.165 113.549  0.00  0.00     0.003 A 
ATOM     10  C16  11 d         -13.039 206.461 113.017  0.00  0.00     0.050 A 
ATOM     11  C17  11 d         -13.137 206.315 111.605  0.00  0.00     0.103 A 
ATOM     12  C18  11 d         -12.125 206.900 110.787  0.00  0.00     0.038 A 
ATOM     13  C19  11 d         -11.042 207.606 111.351  0.00  0.00     0.035 A 
ENDROOT
BRANCH   3  14
ATOM     14  N1   11 d          -8.467 207.985 116.253  0.00  0.00    -0.061 N 
ATOM     15  H2   11 d          -8.539 207.478 117.195  0.00  0.00     0.278 HD
ATOM     16  H3   11 d          -8.422 207.212 115.509  0.00  0.00     0.278 HD
BRANCH  14  17
ATOM     17  C4   11 d          -7.185 208.776 116.166  0.00  0.00     0.191 C 
ATOM     18  C5   11 d          -7.123 209.688 114.910  0.00  0.00     0.017 C 
ATOM     19  C6   11 d          -6.549 208.774 113.839  0.00  0.00     0.011 C 
ATOM     20  C10  11 d          -6.005 210.737 115.055  0.00  0.00     0.007 C 
ATOM     21  C7   11 d          -5.311 208.485 114.666  0.00  0.00    -0.012 C 
ATOM     22  C8   11 d          -5.915 207.918 115.960  0.00  0.00     0.038 C 
ATOM     23  C9   11 d          -4.737 209.890 114.906  0.00  0.00     0.005 C 
ENDBRANCH  14  17
ENDBRANCH   3  14
BRANCH  11  24
ATOM     24  N3   11 d         -14.204 205.623 111.029  0.00  0.00    -0.116 N 
ATOM     25  O1   11 d         -14.914 206.150 110.300  0.00  0.00    -0.532 OA
ATOM     26  O2   11 d         -14.518 204.469 111.432  0.00  0.00    -0.532 OA
ENDBRANCH  11  24
TORSDOF 3
ENDMDL
MODEL 3
REMARK VINA RESULT:      -8.8      2.580      3.897
REMARK  3 active torsions:
REMARK  status: ('A' for Active; 'I' for Inactive)
REMARK    1  A    between atoms: C3_3  and  N1_4 
REMARK    2  A    between atoms: N1_4  and  C4_5 
REMARK    3  A    between atoms: C17_19  and  N3_20 
ROOT
ATOM      1  C1   11 d          -9.897 208.234 114.508  0.00  0.00    -0.019 A 
ATOM      2  C2   11 d         -11.168 208.008 113.985  0.00  0.00     0.073 A 
ATOM      3  C3   11 d         -11.486 208.021 112.509  0.00  0.00     0.238 C 
ATOM      4  C11  11 d         -10.319 208.706 111.746  0.00  0.00     0.040 C 
ATOM      5  C12  11 d          -8.932 208.182 112.179  0.00  0.00     0.007 C 
ATOM      6  C13  11 d          -8.658 208.426 113.678  0.00  0.00     0.042 C 
ATOM      7  N2   11 d         -12.073 207.916 114.987  0.00  0.00    -0.250 NA
ATOM      8  C14  11 d         -11.383 208.022 116.145  0.00  0.00     0.068 A 
ATOM      9  C15  11 d         -10.039 208.205 115.880  0.00  0.00     0.003 A 
ATOM     10  C16  11 d          -9.098 208.353 116.906  0.00  0.00     0.050 A 
ATOM     11  C17  11 d          -9.544 208.308 118.257  0.00  0.00     0.103 A 
ATOM     12  C18  11 d         -10.935 208.123 118.510  0.00  0.00     0.038 A 
ATOM     13  C19  11 d         -11.861 207.979 117.456  0.00  0.00     0.035 A 
ENDROOT
BRANCH   3  14
ATOM     14  N1   11 d         -11.810 206.615 112.076  0.00  0.00    -0.061 N 
ATOM     15  H2   11 d         -11.473 206.453 111.071  0.00  0.00     0.278 HD
ATOM     16  H3   11 d         -11.222 205.958 112.689  0.00  0.00     0.278 HD
BRANCH  14  17
ATOM     17  C4   11 d         -13.255 206.209 112.228  0.00  0.00     0.191 C 
ATOM     18  C5   11 d         -13.803 205.453 110.987  0.00  0.00     0.017 C 
ATOM     19  C6   11 d         -14.286 206.571 110.077  0.00  0.00     0.011 C 
ATOM     20  C10  11 d         -15.123 204.736 111.326  0.00  0.00     0.007 C 
ATOM     21  C7   11 d         -15.217 207.116 111.144  0.00  0.00    -0.012 C 
ATOM     22  C8   11 d         -14.249 207.392 112.304  0.00  0.00     0.038 C 
ATOM     23  C9   11 d         -16.107 205.903 111.457  0.00  0.00     0.005 C 
ENDBRANCH  14  17
ENDBRANCH   3  14
BRANCH  11  24
ATOM     24  N3   11 d          -8.643 208.453 119.313  0.00  0.00    -0.116 N 
ATOM     25  O1   11 d          -7.532 208.214 119.167  0.00  0.00    -0.532 OA
ATOM     26  O2   11 d          -9.053 208.670 120.486  0.00  0.00    -0.532 OA
ENDBRANCH  11  24
TORSDOF 3
ENDMDL
MODEL 4
REMARK VINA RESULT:      -8.5      4.025      8.200
REMARK  3 active torsions:
REMARK  status: ('A' for Active; 'I' for Inactive)
REMARK    1  A    between atoms: C3_3  and  N1_4 
REMARK    2  A    between atoms: N1_4  and  C4_5 
REMARK    3  A    between atoms: C17_19  and  N3_20 
ROOT
ATOM      1  C1   11 d         -11.398 207.561 112.389  0.00  0.00    -0.019 A 
ATOM      2  C2   11 d         -10.502 207.749 113.439  0.00  0.00     0.073 A 
ATOM      3  C3   11 d          -9.079 208.218 113.259  0.00  0.00     0.238 C 
ATOM      4  C11  11 d          -8.678 208.056 111.766  0.00  0.00     0.040 C 
ATOM      5  C12  11 d          -9.746 208.607 110.796  0.00  0.00     0.007 C 
ATOM      6  C13  11 d         -11.102 207.887 110.951  0.00  0.00     0.042 C 
ATOM      7  N2   11 d         -11.053 207.324 114.600  0.00  0.00    -0.250 NA
ATOM      8  C14  11 d         -12.310 206.922 114.310  0.00  0.00     0.068 A 
ATOM      9  C15  11 d         -12.554 207.069 112.958  0.00  0.00     0.003 A 
ATOM     10  C16  11 d         -13.783 206.716 112.387  0.00  0.00     0.050 A 
ATOM     11  C17  11 d         -14.806 206.196 113.229  0.00  0.00     0.103 A 
ATOM     12  C18  11 d         -14.534 206.048 114.621  0.00  0.00     0.038 A 
ATOM     13  C19  11 d         -13.285 206.409 115.168  0.00  0.00     0.035 A 
ENDROOT
BRANCH   3  14
ATOM     14  N1   11 d          -8.959 209.612 113.816  0.00  0.00    -0.061 N 
ATOM     15  H2   11 d          -8.743 210.307 113.028  0.00  0.00     0.278 HD
ATOM     16  H3   11 d          -9.930 209.885 114.185  0.00  0.00     0.278 HD
BRANCH  14  17
ATOM     17  C4   11 d          -7.979 209.771 114.952  0.00  0.00     0.191 C 
ATOM     18  C5   11 d          -6.560 210.181 114.472  0.00  0.00     0.017 C 
ATOM     19  C6   11 d          -5.890 208.849 114.174  0.00  0.00     0.011 C 
ATOM     20  C10  11 d          -5.715 210.696 115.652  0.00  0.00     0.007 C 
ATOM     21  C7   11 d          -6.131 208.345 115.584  0.00  0.00    -0.012 C 
ATOM     22  C8   11 d          -7.657 208.461 115.710  0.00  0.00     0.038 C 
ATOM     23  C9   11 d          -5.434 209.414 116.441  0.00  0.00     0.005 C 
ENDBRANCH  14  17
ENDBRANCH   3  14
BRANCH  11  24
ATOM     24  N3   11 d         -16.047 205.830 112.704  0.00  0.00    -0.116 N 
ATOM     25  O1   11 d         -16.982 205.833 113.365  0.00  0.00    -0.532 OA
ATOM     26  O2   11 d         -16.135 205.316 111.555  0.00  0.00    -0.532 OA
ENDBRANCH  11  24
TORSDOF 3
ENDMDL
MODEL 5
REMARK VINA RESULT:      -8.5      2.552      4.621
REMARK  3 active torsions:
REMARK  status: ('A' for Active; 'I' for Inactive)
REMARK    1  A    between atoms: C3_3  and  N1_4 
REMARK    2  A    between atoms: N1_4  and  C4_5 
REMARK    3  A    between atoms: C17_19  and  N3_20 
ROOT
ATOM      1  C1   11 d          -6.512 208.650 113.530  0.00  0.00    -0.019 A 
ATOM      2  C2   11 d          -7.474 209.015 114.468  0.00  0.00     0.073 A 
ATOM      3  C3   11 d          -8.905 209.347 114.123  0.00  0.00     0.238 C 
ATOM      4  C11  11 d          -9.009 209.610 112.594  0.00  0.00     0.040 C 
ATOM      5  C12  11 d          -8.296 208.529 111.752  0.00  0.00     0.007 C 
ATOM      6  C13  11 d          -6.788 208.445 112.066  0.00  0.00     0.042 C 
ATOM      7  N2   11 d          -6.903 209.155 115.688  0.00  0.00    -0.250 NA
ATOM      8  C14  11 d          -5.599 208.827 115.546  0.00  0.00     0.068 A 
ATOM      9  C15  11 d          -5.334 208.498 114.231  0.00  0.00     0.003 A 
ATOM     10  C16  11 d          -4.052 208.126 113.807  0.00  0.00     0.050 A 
ATOM     11  C17  11 d          -3.000 208.083 114.763  0.00  0.00     0.103 A 
ATOM     12  C18  11 d          -3.292 208.430 116.116  0.00  0.00     0.038 A 
ATOM     13  C19  11 d          -4.593 208.803 116.513  0.00  0.00     0.035 A 
ENDROOT
BRANCH   3  14
ATOM     14  N1   11 d          -9.794 208.253 114.656  0.00  0.00    -0.061 N 
ATOM     15  H2   11 d          -9.237 207.343 114.757  0.00  0.00     0.278 HD
ATOM     16  H3   11 d         -10.071 208.537 115.653  0.00  0.00     0.278 HD
BRANCH  14  17
ATOM     17  C4   11 d         -11.066 208.019 113.879  0.00  0.00     0.191 C 
ATOM     18  C5   11 d         -12.334 208.047 114.776  0.00  0.00     0.017 C 
ATOM     19  C6   11 d         -12.451 206.612 115.265  0.00  0.00     0.011 C 
ATOM     20  C10  11 d         -13.604 208.187 113.917  0.00  0.00     0.007 C 
ATOM     21  C7   11 d         -12.498 206.070 113.849  0.00  0.00    -0.012 C 
ATOM     22  C8   11 d         -11.187 206.607 113.257  0.00  0.00     0.038 C 
ATOM     23  C9   11 d         -13.705 206.810 113.252  0.00  0.00     0.005 C 
ENDBRANCH  14  17
ENDBRANCH   3  14
BRANCH  11  24
ATOM     24  N3   11 d          -1.705 207.719 114.387  0.00  0.00    -0.116 N 
ATOM     25  O1   11 d          -1.209 206.789 114.835  0.00  0.00    -0.532 OA
ATOM     26  O2   11 d          -0.992 208.497 113.695  0.00  0.00    -0.532 OA
ENDBRANCH  11  24
TORSDOF 3
ENDMDL
MODEL 6
REMARK VINA RESULT:      -8.4      3.837      8.370
REMARK  3 active torsions:
REMARK  status: ('A' for Active; 'I' for Inactive)
REMARK    1  A    between atoms: C3_3  and  N1_4 
REMARK    2  A    between atoms: N1_4  and  C4_5 
REMARK    3  A    between atoms: C17_19  and  N3_20 
ROOT
ATOM      1  C1   11 d         -10.051 208.253 113.440  0.00  0.00    -0.019 A 
ATOM      2  C2   11 d          -8.946 208.616 112.675  0.00  0.00     0.073 A 
ATOM      3  C3   11 d          -7.704 209.262 113.240  0.00  0.00     0.238 C 
ATOM      4  C11  11 d          -8.020 209.807 114.661  0.00  0.00     0.040 C 
ATOM      5  C12  11 d          -8.763 208.781 115.544  0.00  0.00     0.007 C 
ATOM      6  C13  11 d         -10.120 208.366 114.938  0.00  0.00     0.042 C 
ATOM      7  N2   11 d          -9.211 208.430 111.360  0.00  0.00    -0.250 NA
ATOM      8  C14  11 d         -10.451 207.898 111.285  0.00  0.00     0.068 A 
ATOM      9  C15  11 d         -10.986 207.765 112.552  0.00  0.00     0.003 A 
ATOM     10  C16  11 d         -12.269 207.244 112.760  0.00  0.00     0.050 A 
ATOM     11  C17  11 d         -13.036 206.839 111.632  0.00  0.00     0.103 A 
ATOM     12  C18  11 d         -12.468 206.988 110.332  0.00  0.00     0.038 A 
ATOM     13  C19  11 d         -11.173 207.518 110.153  0.00  0.00     0.035 A 
ENDROOT
BRANCH   3  14
ATOM     14  N1   11 d          -6.570 208.274 113.160  0.00  0.00    -0.061 N 
ATOM     15  H2   11 d          -6.421 207.806 114.113  0.00  0.00     0.278 HD
ATOM     16  H3   11 d          -6.887 207.490 112.498  0.00  0.00     0.278 HD
BRANCH  14  17
ATOM     17  C4   11 d          -5.271 208.824 112.625  0.00  0.00     0.191 C 
ATOM     18  C5   11 d          -4.339 207.721 112.053  0.00  0.00     0.017 C 
ATOM     19  C6   11 d          -3.558 207.253 113.270  0.00  0.00     0.011 C 
ATOM     20  C10  11 d          -3.225 208.344 111.191  0.00  0.00     0.007 C 
ATOM     21  C7   11 d          -3.044 208.652 113.553  0.00  0.00    -0.012 C 
ATOM     22  C8   11 d          -4.348 209.449 113.699  0.00  0.00     0.038 C 
ATOM     23  C9   11 d          -2.332 209.013 112.240  0.00  0.00     0.005 C 
ENDBRANCH  14  17
ENDBRANCH   3  14
BRANCH  11  24
ATOM     24  N3   11 d         -14.321 206.316 111.790  0.00  0.00    -0.116 N 
ATOM     25  O1   11 d         -15.213 207.010 111.977  0.00  0.00    -0.532 OA
ATOM     26  O2   11 d         -14.500 205.073 111.913  0.00  0.00    -0.532 OA
ENDBRANCH  11  24
TORSDOF 3
ENDMDL
MODEL 7
REMARK VINA RESULT:      -8.2      4.281      5.739
REMARK  3 active torsions:
REMARK  status: ('A' for Active; 'I' for Inactive)
REMARK    1  A    between atoms: C3_3  and  N1_4 
REMARK    2  A    between atoms: N1_4  and  C4_5 
REMARK    3  A    between atoms: C17_19  and  N3_20 
ROOT
ATOM      1  C1   11 d         -12.127 207.276 116.905  0.00  0.00    -0.019 A 
ATOM      2  C2   11 d         -13.467 207.150 116.549  0.00  0.00     0.073 A 
ATOM      3  C3   11 d         -14.067 207.746 115.299  0.00  0.00     0.238 C 
ATOM      4  C11  11 d         -13.093 208.816 114.731  0.00  0.00     0.040 C 
ATOM      5  C12  11 d         -11.632 208.317 114.662  0.00  0.00     0.007 C 
ATOM      6  C13  11 d         -11.080 207.936 116.051  0.00  0.00     0.042 C 
ATOM      7  N2   11 d         -14.156 206.544 117.545  0.00  0.00    -0.250 NA
ATOM      8  C14  11 d         -13.257 206.230 118.504  0.00  0.00     0.068 A 
ATOM      9  C15  11 d         -11.998 206.657 118.131  0.00  0.00     0.003 A 
ATOM     10  C16  11 d         -10.880 206.464 118.951  0.00  0.00     0.050 A 
ATOM     11  C17  11 d         -11.052 205.806 120.201  0.00  0.00     0.103 A 
ATOM     12  C18  11 d         -12.360 205.377 120.571  0.00  0.00     0.038 A 
ATOM     13  C19  11 d         -13.469 205.586 119.725  0.00  0.00     0.035 A 
ENDROOT
BRANCH   3  14
ATOM     14  N1   11 d         -14.425 206.627 114.358  0.00  0.00    -0.061 N 
ATOM     15  H2   11 d         -13.689 205.850 114.412  0.00  0.00     0.278 HD
ATOM     16  H3   11 d         -15.335 206.191 114.725  0.00  0.00     0.278 HD
BRANCH  14  17
ATOM     17  C4   11 d         -14.664 207.039 112.926  0.00  0.00     0.191 C 
ATOM     18  C5   11 d         -15.826 206.254 112.258  0.00  0.00     0.017 C 
ATOM     19  C6   11 d         -15.143 205.009 111.713  0.00  0.00     0.011 C 
ATOM     20  C10  11 d         -16.280 206.952 110.963  0.00  0.00     0.007 C 
ATOM     21  C7   11 d         -14.171 205.832 110.889  0.00  0.00    -0.012 C 
ATOM     22  C8   11 d         -13.502 206.705 111.960  0.00  0.00     0.038 C 
ATOM     23  C9   11 d         -15.111 206.675 110.012  0.00  0.00     0.005 C 
ENDBRANCH  14  17
ENDBRANCH   3  14
BRANCH  11  24
ATOM     24  N3   11 d          -9.966 205.593 121.054  0.00  0.00    -0.116 N 
ATOM     25  O1   11 d          -9.080 204.950 120.717  0.00  0.00    -0.532 OA
ATOM     26  O2   11 d         -10.018 205.945 122.264  0.00  0.00    -0.532 OA
ENDBRANCH  11  24
TORSDOF 3
ENDMDL
MODEL 8
REMARK VINA RESULT:      -8.0      4.647      8.187
REMARK  3 active torsions:
REMARK  status: ('A' for Active; 'I' for Inactive)
REMARK    1  A    between atoms: C3_3  and  N1_4 
REMARK    2  A    between atoms: N1_4  and  C4_5 
REMARK    3  A    between atoms: C17_19  and  N3_20 
ROOT
ATOM      1  C1   11 d         -12.429 206.723 115.429  0.00  0.00    -0.019 A 
ATOM      2  C2   11 d         -11.272 207.491 115.532  0.00  0.00     0.073 A 
ATOM      3  C3   11 d         -10.698 207.981 116.839  0.00  0.00     0.238 C 
ATOM      4  C11  11 d         -11.781 207.853 117.947  0.00  0.00     0.040 C 
ATOM      5  C12  11 d         -12.484 206.477 117.939  0.00  0.00     0.007 C 
ATOM      6  C13  11 d         -13.207 206.199 116.605  0.00  0.00     0.042 C 
ATOM      7  N2   11 d         -10.833 207.836 114.298  0.00  0.00    -0.250 NA
ATOM      8  C14  11 d         -11.665 207.246 113.411  0.00  0.00     0.068 A 
ATOM      9  C15  11 d         -12.649 206.544 114.080  0.00  0.00     0.003 A 
ATOM     10  C16  11 d         -13.650 205.843 113.396  0.00  0.00     0.050 A 
ATOM     11  C17  11 d         -13.646 205.856 111.973  0.00  0.00     0.103 A 
ATOM     12  C18  11 d         -12.625 206.590 111.301  0.00  0.00     0.038 A 
ATOM     13  C19  11 d         -11.630 207.289 112.016  0.00  0.00     0.035 A 
ENDROOT
BRANCH   3  14
ATOM     14  N1   11 d          -9.409 207.248 117.102  0.00  0.00    -0.061 N 
ATOM     15  H2   11 d          -9.612 206.231 117.372  0.00  0.00     0.278 HD
ATOM     16  H3   11 d          -8.882 207.201 116.168  0.00  0.00     0.278 HD
BRANCH  14  17
ATOM     17  C4   11 d          -8.492 207.896 118.110  0.00  0.00     0.191 C 
ATOM     18  C5   11 d          -7.013 207.945 117.635  0.00  0.00     0.017 C 
ATOM     19  C6   11 d          -6.452 206.607 118.090  0.00  0.00     0.011 C 
ATOM     20  C10  11 d          -6.199 208.931 118.493  0.00  0.00     0.007 C 
ATOM     21  C7   11 d          -6.827 206.875 119.536  0.00  0.00    -0.012 C 
ATOM     22  C8   11 d          -8.340 207.114 119.436  0.00  0.00     0.038 C 
ATOM     23  C9   11 d          -6.088 208.190 119.830  0.00  0.00     0.005 C 
ENDBRANCH  14  17
ENDBRANCH   3  14
BRANCH  11  24
ATOM     24  N3   11 d         -14.626 205.174 111.248  0.00  0.00    -0.116 N 
ATOM     25  O1   11 d         -15.693 205.583 111.184  0.00  0.00    -0.532 OA
ATOM     26  O2   11 d         -14.408 204.013 110.805  0.00  0.00    -0.532 OA
ENDBRANCH  11  24
TORSDOF 3
ENDMDL
MODEL 9
REMARK VINA RESULT:      -7.9      4.754      6.716
REMARK  3 active torsions:
REMARK  status: ('A' for Active; 'I' for Inactive)
REMARK    1  A    between atoms: C3_3  and  N1_4 
REMARK    2  A    between atoms: N1_4  and  C4_5 
REMARK    3  A    between atoms: C17_19  and  N3_20 
ROOT
ATOM      1  C1   11 d         -11.711 206.790 115.933  0.00  0.00    -0.019 A 
ATOM      2  C2   11 d         -12.782 206.056 116.437  0.00  0.00     0.073 A 
ATOM      3  C3   11 d         -12.957 205.715 117.897  0.00  0.00     0.238 C 
ATOM      4  C11  11 d         -11.609 205.942 118.635  0.00  0.00     0.040 C 
ATOM      5  C12  11 d         -10.956 207.297 118.285  0.00  0.00     0.007 C 
ATOM      6  C13  11 d         -10.641 207.421 116.779  0.00  0.00     0.042 C 
ATOM      7  N2   11 d         -13.544 205.590 115.420  0.00  0.00    -0.250 NA
ATOM      8  C14  11 d         -13.004 206.069 114.278  0.00  0.00     0.068 A 
ATOM      9  C15  11 d         -11.881 206.822 114.565  0.00  0.00     0.003 A 
ATOM     10  C16  11 d         -11.123 207.430 113.557  0.00  0.00     0.050 A 
ATOM     11  C17  11 d         -11.527 207.268 112.202  0.00  0.00     0.103 A 
ATOM     12  C18  11 d         -12.685 206.483 111.926  0.00  0.00     0.038 A 
ATOM     13  C19  11 d         -13.429 205.881 112.961  0.00  0.00     0.035 A 
ENDROOT
BRANCH   3  14
ATOM     14  N1   11 d         -14.131 206.493 118.433  0.00  0.00    -0.061 N 
ATOM     15  H2   11 d         -14.124 207.489 118.037  0.00  0.00     0.278 HD
ATOM     16  H3   11 d         -15.016 206.030 118.039  0.00  0.00     0.278 HD
BRANCH  14  17
ATOM     17  C4   11 d         -14.258 206.515 119.936  0.00  0.00     0.191 C 
ATOM     18  C5   11 d         -14.319 205.092 120.557  0.00  0.00     0.017 C 
ATOM     19  C6   11 d         -15.800 204.749 120.507  0.00  0.00     0.011 C 
ATOM     20  C10  11 d         -14.066 205.151 122.074  0.00  0.00     0.007 C 
ATOM     21  C7   11 d         -16.173 205.979 121.313  0.00  0.00    -0.012 C 
ATOM     22  C8   11 d         -15.586 207.112 120.458  0.00  0.00     0.038 C 
ATOM     23  C9   11 d         -15.354 205.791 122.600  0.00  0.00     0.005 C 
ENDBRANCH  14  17
ENDBRANCH   3  14
BRANCH  11  24
ATOM     24  N3   11 d         -10.801 207.854 111.163  0.00  0.00    -0.116 N 
ATOM     25  O1   11 d         -10.014 208.657 111.384  0.00  0.00    -0.532 OA
ATOM     26  O2   11 d         -11.118 207.650 109.959  0.00  0.00    -0.532 OA
ENDBRANCH  11  24
TORSDOF 3
ENDMDL
MODEL 10
REMARK VINA RESULT:      -7.6      4.186      8.833
REMARK  3 active torsions:
REMARK  status: ('A' for Active; 'I' for Inactive)
REMARK    1  A    between atoms: C3_3  and  N1_4 
REMARK    2  A    between atoms: N1_4  and  C4_5 
REMARK    3  A    between atoms: C17_19  and  N3_20 
ROOT
ATOM      1  C1   11 d          -6.915 208.951 114.194  0.00  0.00    -0.019 A 
ATOM      2  C2   11 d          -7.014 209.038 115.580  0.00  0.00     0.073 A 
ATOM      3  C3   11 d          -5.835 209.257 116.497  0.00  0.00     0.238 C 
ATOM      4  C11  11 d          -4.525 208.960 115.716  0.00  0.00     0.040 C 
ATOM      5  C12  11 d          -4.491 209.633 114.326  0.00  0.00     0.007 C 
ATOM      6  C13  11 d          -5.643 209.155 113.418  0.00  0.00     0.042 C 
ATOM      7  N2   11 d          -8.281 208.765 115.974  0.00  0.00    -0.250 NA
ATOM      8  C14  11 d          -9.001 208.562 114.848  0.00  0.00     0.068 A 
ATOM      9  C15  11 d          -8.189 208.683 113.737  0.00  0.00     0.003 A 
ATOM     10  C16  11 d          -8.684 208.512 112.439  0.00  0.00     0.050 A 
ATOM     11  C17  11 d         -10.063 208.209 112.265  0.00  0.00     0.103 A 
ATOM     12  C18  11 d         -10.885 208.083 113.424  0.00  0.00     0.038 A 
ATOM     13  C19  11 d         -10.358 208.259 114.721  0.00  0.00     0.035 A 
ENDROOT
BRANCH   3  14
ATOM     14  N1   11 d          -5.939 210.637 117.092  0.00  0.00    -0.061 N 
ATOM     15  H2   11 d          -5.512 211.359 116.424  0.00  0.00     0.278 HD
ATOM     16  H3   11 d          -6.985 210.874 117.146  0.00  0.00     0.278 HD
BRANCH  14  17
ATOM     17  C4   11 d          -5.366 210.787 118.479  0.00  0.00     0.191 C 
ATOM     18  C5   11 d          -5.525 209.503 119.339  0.00  0.00     0.017 C 
ATOM     19  C6   11 d          -6.900 209.666 119.966  0.00  0.00     0.011 C 
ATOM     20  C10  11 d          -4.611 209.561 120.577  0.00  0.00     0.007 C 
ATOM     21  C7   11 d          -6.522 210.994 120.594  0.00  0.00    -0.012 C 
ATOM     22  C8   11 d          -6.100 211.819 119.369  0.00  0.00     0.038 C 
ATOM     23  C9   11 d          -5.298 210.621 121.444  0.00  0.00     0.005 C 
ENDBRANCH  14  17
ENDBRANCH   3  14
BRANCH  11  24
ATOM     24  N3   11 d         -10.602 208.027 110.990  0.00  0.00    -0.116 N 
ATOM     25  O1   11 d         -10.269 208.692 110.118  0.00  0.00    -0.532 OA
ATOM     26  O2   11 d         -11.587 207.261 110.809  0.00  0.00    -0.532 OA
ENDBRANCH  11  24
TORSDOF 3
ENDMDL
