MODEL 1
REMARK VINA RESULT:      -9.9      0.000      0.000
REMARK  3 active torsions:
REMARK  status: ('A' for Active; 'I' for Inactive)
REMARK    1  A    between atoms: N1_2  and  C11_14 
REMARK    2  A    between atoms: C6_7  and  O1_8 
REMARK    3  A    between atoms: C11_14  and  C12_15 
ROOT
ATOM      1  C1   11 d         -13.683 205.529 116.294  0.00  0.00     0.230 C 
ATOM      2  N1   11 d         -13.404 206.812 115.770  0.00  0.00    -0.333 N 
ATOM      3  C2   11 d         -12.235 207.454 116.439  0.00  0.00     0.183 C 
ATOM      4  C3   11 d         -11.157 207.795 115.422  0.00  0.00    -0.025 A 
ATOM      5  C4   11 d         -10.451 209.012 115.520  0.00  0.00     0.013 A 
ATOM      6  C5   11 d          -9.665 209.472 114.450  0.00  0.00     0.037 A 
ATOM      7  C6   11 d          -9.598 208.740 113.254  0.00  0.00     0.068 A 
ATOM      8  C8   11 d         -10.234 207.492 113.172  0.00  0.00     0.037 A 
ATOM      9  C9   11 d         -11.009 207.027 114.242  0.00  0.00     0.013 A 
ATOM     10  S1   11 d         -11.544 206.258 117.655  0.00  0.00    -0.130 SA
ATOM     11  C10  11 d         -12.555 204.878 116.998  0.00  0.00     0.179 C 
ATOM     12  O2   11 d         -14.848 205.008 116.309  0.00  0.00    -0.273 OA
ENDROOT
BRANCH   2  13
ATOM     13  C11  11 d         -14.124 207.502 114.636  0.00  0.00     0.137 C 
BRANCH  13  14
ATOM     14  C12  11 d         -14.578 206.816 113.305  0.00  0.00    -0.023 C 
ATOM     15  C13  11 d         -14.734 207.993 112.281  0.00  0.00     0.015 C 
ATOM     16  C14  11 d         -15.155 207.493 110.889  0.00  0.00    -0.013 C 
ATOM     17  C15  11 d         -16.519 206.779 111.004  0.00  0.00     0.009 C 
ATOM     18  C21  11 d         -14.077 206.518 110.367  0.00  0.00     0.009 C 
ATOM     19  C16  11 d         -16.394 205.585 111.981  0.00  0.00    -0.013 C 
ATOM     20  C17  11 d         -15.958 206.091 113.390  0.00  0.00     0.015 C 
ATOM     21  C18  11 d         -15.341 204.601 111.418  0.00  0.00     0.009 C 
ATOM     22  C19  11 d         -13.971 205.311 111.323  0.00  0.00    -0.013 C 
ATOM     23  C20  11 d         -13.554 205.799 112.729  0.00  0.00     0.015 C 
ENDBRANCH  13  14
ENDBRANCH   2  13
BRANCH   7  24
ATOM     24  O1   11 d          -8.853 209.246 112.155  0.00  0.00    -0.356 OA
ATOM     25  C7   11 d          -7.511 208.685 112.145  0.00  0.00     0.210 C 
ENDBRANCH   7  24
TORSDOF 3
ENDMDL
MODEL 2
REMARK VINA RESULT:      -8.0      1.581      4.986
REMARK  3 active torsions:
REMARK  status: ('A' for Active; 'I' for Inactive)
REMARK    1  A    between atoms: N1_2  and  C11_14 
REMARK    2  A    between atoms: C6_7  and  O1_8 
REMARK    3  A    between atoms: C11_14  and  C12_15 
ROOT
ATOM      1  C1   11 d         -10.900 208.348 114.494  0.00  0.00     0.230 C 
ATOM      2  N1   11 d         -11.246 206.978 114.532  0.00  0.00    -0.333 N 
ATOM      3  C2   11 d         -11.164 206.413 115.911  0.00  0.00     0.183 C 
ATOM      4  C3   11 d         -12.507 205.836 116.334  0.00  0.00    -0.025 A 
ATOM      5  C4   11 d         -12.561 204.625 117.053  0.00  0.00     0.013 A 
ATOM      6  C5   11 d         -13.777 203.937 117.205  0.00  0.00     0.037 A 
ATOM      7  C6   11 d         -14.950 204.432 116.613  0.00  0.00     0.068 A 
ATOM      8  C8   11 d         -14.923 205.673 115.960  0.00  0.00     0.037 A 
ATOM      9  C9   11 d         -13.714 206.366 115.818  0.00  0.00     0.013 A 
ATOM     10  S1   11 d         -10.716 207.777 117.063  0.00  0.00    -0.130 SA
ATOM     11  C10  11 d         -11.005 209.060 115.787  0.00  0.00     0.179 C 
ATOM     12  O2   11 d         -10.387 208.921 113.474  0.00  0.00    -0.273 OA
ENDROOT
BRANCH   2  13
ATOM     13  C11  11 d         -11.704 206.128 113.371  0.00  0.00     0.137 C 
BRANCH  13  14
ATOM     14  C12  11 d         -12.955 206.418 112.479  0.00  0.00    -0.023 C 
ATOM     15  C13  11 d         -13.811 205.106 112.552  0.00  0.00     0.015 C 
ATOM     16  C14  11 d         -15.114 205.222 111.742  0.00  0.00    -0.013 C 
ATOM     17  C15  11 d         -14.762 205.479 110.261  0.00  0.00     0.009 C 
ATOM     18  C21  11 d         -15.946 206.393 112.311  0.00  0.00     0.009 C 
ATOM     19  C16  11 d         -13.946 206.789 110.145  0.00  0.00    -0.013 C 
ATOM     20  C17  11 d         -12.631 206.675 110.973  0.00  0.00     0.015 C 
ATOM     21  C18  11 d         -14.814 207.953 110.679  0.00  0.00     0.009 C 
ATOM     22  C19  11 d         -15.147 207.706 112.169  0.00  0.00    -0.013 C 
ATOM     23  C20  11 d         -13.832 207.601 112.973  0.00  0.00     0.015 C 
ENDBRANCH  13  14
ENDBRANCH   2  13
BRANCH   7  24
ATOM     24  O1   11 d         -16.160 203.695 116.717  0.00  0.00    -0.356 OA
ATOM     25  C7   11 d         -16.000 202.574 117.632  0.00  0.00     0.210 C 
ENDBRANCH   7  24
TORSDOF 3
ENDMDL
MODEL 3
REMARK VINA RESULT:      -7.9      2.036      4.625
REMARK  3 active torsions:
REMARK  status: ('A' for Active; 'I' for Inactive)
REMARK    1  A    between atoms: N1_2  and  C11_14 
REMARK    2  A    between atoms: C6_7  and  O1_8 
REMARK    3  A    between atoms: C11_14  and  C12_15 
ROOT
ATOM      1  C1   11 d         -10.082 208.554 112.092  0.00  0.00     0.230 C 
ATOM      2  N1   11 d         -10.377 207.578 113.071  0.00  0.00    -0.333 N 
ATOM      3  C2   11 d          -9.736 207.883 114.384  0.00  0.00     0.183 C 
ATOM      4  C3   11 d         -10.785 207.997 115.479  0.00  0.00    -0.025 A 
ATOM      5  C4   11 d         -10.536 207.455 116.757  0.00  0.00     0.013 A 
ATOM      6  C5   11 d         -11.580 207.299 117.684  0.00  0.00     0.037 A 
ATOM      7  C6   11 d         -12.895 207.650 117.336  0.00  0.00     0.068 A 
ATOM      8  C8   11 d         -13.142 208.259 116.097  0.00  0.00     0.037 A 
ATOM      9  C9   11 d         -12.100 208.427 115.177  0.00  0.00     0.013 A 
ATOM     10  S1   11 d          -8.860 209.495 114.232  0.00  0.00    -0.130 SA
ATOM     11  C10  11 d          -9.650 209.866 112.621  0.00  0.00     0.179 C 
ATOM     12  O2   11 d         -10.034 208.309 110.840  0.00  0.00    -0.273 OA
ENDROOT
BRANCH   2  13
ATOM     13  C11  11 d         -11.268 206.370 112.905  0.00  0.00     0.137 C 
BRANCH  13  14
ATOM     14  C12  11 d         -12.752 206.404 112.412  0.00  0.00    -0.023 C 
ATOM     15  C13  11 d         -13.536 205.523 113.446  0.00  0.00     0.015 C 
ATOM     16  C14  11 d         -15.040 205.465 113.129  0.00  0.00    -0.013 C 
ATOM     17  C15  11 d         -15.235 204.843 111.729  0.00  0.00     0.009 C 
ATOM     18  C21  11 d         -15.609 206.901 113.165  0.00  0.00     0.009 C 
ATOM     19  C16  11 d         -14.503 205.708 110.675  0.00  0.00    -0.013 C 
ATOM     20  C17  11 d         -12.980 205.775 111.002  0.00  0.00     0.015 C 
ATOM     21  C18  11 d         -15.116 207.129 110.698  0.00  0.00     0.009 C 
ATOM     22  C19  11 d         -14.902 207.759 112.095  0.00  0.00    -0.013 C 
ATOM     23  C20  11 d         -13.388 207.821 112.397  0.00  0.00     0.015 C 
ENDBRANCH  13  14
ENDBRANCH   2  13
BRANCH   7  24
ATOM     24  O1   11 d         -13.954 207.426 118.257  0.00  0.00    -0.356 OA
ATOM     25  C7   11 d         -13.775 206.156 118.943  0.00  0.00     0.210 C 
ENDBRANCH   7  24
TORSDOF 3
ENDMDL
MODEL 4
REMARK VINA RESULT:      -7.6      2.206      5.214
REMARK  3 active torsions:
REMARK  status: ('A' for Active; 'I' for Inactive)
REMARK    1  A    between atoms: N1_2  and  C11_14 
REMARK    2  A    between atoms: C6_7  and  O1_8 
REMARK    3  A    between atoms: C11_14  and  C12_15 
ROOT
ATOM      1  C1   11 d         -11.429 208.333 115.044  0.00  0.00     0.230 C 
ATOM      2  N1   11 d         -12.263 207.312 115.554  0.00  0.00    -0.333 N 
ATOM      3  C2   11 d         -11.639 206.591 116.701  0.00  0.00     0.183 C 
ATOM      4  C3   11 d         -12.522 206.684 117.937  0.00  0.00    -0.025 A 
ATOM      5  C4   11 d         -12.683 205.563 118.777  0.00  0.00     0.013 A 
ATOM      6  C5   11 d         -13.698 205.537 119.748  0.00  0.00     0.037 A 
ATOM      7  C6   11 d         -14.589 206.615 119.871  0.00  0.00     0.068 A 
ATOM      8  C8   11 d         -14.392 207.766 119.092  0.00  0.00     0.037 A 
ATOM      9  C9   11 d         -13.373 207.799 118.133  0.00  0.00     0.013 A 
ATOM     10  S1   11 d         -10.022 207.391 117.068  0.00  0.00    -0.130 SA
ATOM     11  C10  11 d         -10.387 208.818 115.977  0.00  0.00     0.179 C 
ATOM     12  O2   11 d         -11.446 208.722 113.828  0.00  0.00    -0.273 OA
ENDROOT
BRANCH   2  13
ATOM     13  C11  11 d         -13.655 206.962 115.082  0.00  0.00     0.137 C 
BRANCH  13  14
ATOM     14  C12  11 d         -14.061 206.687 113.597  0.00  0.00    -0.023 C 
ATOM     15  C13  11 d         -15.267 205.689 113.691  0.00  0.00     0.015 C 
ATOM     16  C14  11 d         -15.821 205.324 112.303  0.00  0.00    -0.013 C 
ATOM     17  C15  11 d         -14.706 204.646 111.479  0.00  0.00     0.009 C 
ATOM     18  C21  11 d         -16.298 206.617 111.605  0.00  0.00     0.009 C 
ATOM     19  C16  11 d         -13.510 205.617 111.334  0.00  0.00    -0.013 C 
ATOM     20  C17  11 d         -12.954 205.995 112.741  0.00  0.00     0.015 C 
ATOM     21  C18  11 d         -13.999 206.886 110.595  0.00  0.00     0.009 C 
ATOM     22  C19  11 d         -15.101 207.576 111.432  0.00  0.00    -0.013 C 
ATOM     23  C20  11 d         -14.529 207.947 112.819  0.00  0.00     0.015 C 
ENDBRANCH  13  14
ENDBRANCH   2  13
BRANCH   7  24
ATOM     24  O1   11 d         -15.653 206.550 120.810  0.00  0.00    -0.356 OA
ATOM     25  C7   11 d         -15.713 205.233 121.425  0.00  0.00     0.210 C 
ENDBRANCH   7  24
TORSDOF 3
ENDMDL
MODEL 5
REMARK VINA RESULT:      -7.4      2.367      5.143
REMARK  3 active torsions:
REMARK  status: ('A' for Active; 'I' for Inactive)
REMARK    1  A    between atoms: N1_2  and  C11_14 
REMARK    2  A    between atoms: C6_7  and  O1_8 
REMARK    3  A    between atoms: C11_14  and  C12_15 
ROOT
ATOM      1  C1   11 d         -11.501 208.256 115.493  0.00  0.00     0.230 C 
ATOM      2  N1   11 d         -12.469 207.310 115.901  0.00  0.00    -0.333 N 
ATOM      3  C2   11 d         -11.967 206.419 116.987  0.00  0.00     0.183 C 
ATOM      4  C3   11 d         -12.858 206.517 118.215  0.00  0.00    -0.025 A 
ATOM      5  C4   11 d         -13.179 205.358 118.951  0.00  0.00     0.013 A 
ATOM      6  C5   11 d         -14.211 205.378 119.905  0.00  0.00     0.037 A 
ATOM      7  C6   11 d         -14.960 206.546 120.113  0.00  0.00     0.068 A 
ATOM      8  C8   11 d         -14.602 207.725 119.442  0.00  0.00     0.037 A 
ATOM      9  C9   11 d         -13.566 207.710 118.500  0.00  0.00     0.013 A 
ATOM     10  S1   11 d         -10.270 206.970 117.440  0.00  0.00    -0.130 SA
ATOM     11  C10  11 d         -10.427 208.520 116.476  0.00  0.00     0.179 C 
ATOM     12  O2   11 d         -11.442 208.748 114.316  0.00  0.00    -0.273 OA
ENDROOT
BRANCH   2  13
ATOM     13  C11  11 d         -13.883 207.183 115.385  0.00  0.00     0.137 C 
BRANCH  13  14
ATOM     14  C12  11 d         -14.281 206.686 113.955  0.00  0.00    -0.023 C 
ATOM     15  C13  11 d         -14.535 207.997 113.134  0.00  0.00     0.015 C 
ATOM     16  C14  11 d         -14.916 207.696 111.674  0.00  0.00    -0.013 C 
ATOM     17  C15  11 d         -16.215 206.863 111.655  0.00  0.00     0.009 C 
ATOM     18  C21  11 d         -13.761 206.911 111.014  0.00  0.00     0.009 C 
ATOM     19  C16  11 d         -15.991 205.541 112.428  0.00  0.00    -0.013 C 
ATOM     20  C17  11 d         -15.595 205.846 113.906  0.00  0.00     0.015 C 
ATOM     21  C18  11 d         -14.861 204.751 111.726  0.00  0.00     0.009 C 
ATOM     22  C19  11 d         -13.554 205.578 111.764  0.00  0.00    -0.013 C 
ATOM     23  C20  11 d         -13.177 205.864 113.235  0.00  0.00     0.015 C 
ENDBRANCH  13  14
ENDBRANCH   2  13
BRANCH   7  24
ATOM     24  O1   11 d         -16.044 206.538 121.031  0.00  0.00    -0.356 OA
ATOM     25  C7   11 d         -16.596 205.197 121.158  0.00  0.00     0.210 C 
ENDBRANCH   7  24
TORSDOF 3
ENDMDL
MODEL 6
REMARK VINA RESULT:      -7.2      2.633      4.045
REMARK  3 active torsions:
REMARK  status: ('A' for Active; 'I' for Inactive)
REMARK    1  A    between atoms: N1_2  and  C11_14 
REMARK    2  A    between atoms: C6_7  and  O1_8 
REMARK    3  A    between atoms: C11_14  and  C12_15 
ROOT
ATOM      1  C1   11 d         -14.786 204.371 118.668  0.00  0.00     0.230 C 
ATOM      2  N1   11 d         -14.058 205.243 117.826  0.00  0.00    -0.333 N 
ATOM      3  C2   11 d         -13.883 206.596 118.431  0.00  0.00     0.183 C 
ATOM      4  C3   11 d         -12.407 206.940 118.554  0.00  0.00    -0.025 A 
ATOM      5  C4   11 d         -11.958 208.246 118.267  0.00  0.00     0.013 A 
ATOM      6  C5   11 d         -10.589 208.512 118.101  0.00  0.00     0.037 A 
ATOM      7  C6   11 d          -9.650 207.472 118.185  0.00  0.00     0.068 A 
ATOM      8  C8   11 d         -10.076 206.184 118.544  0.00  0.00     0.037 A 
ATOM      9  C9   11 d         -11.439 205.920 118.722  0.00  0.00     0.013 A 
ATOM     10  S1   11 d         -14.628 206.572 120.114  0.00  0.00    -0.130 SA
ATOM     11  C10  11 d         -14.807 204.748 120.099  0.00  0.00     0.179 C 
ATOM     12  O2   11 d         -15.508 203.410 118.237  0.00  0.00    -0.273 OA
ENDROOT
BRANCH   2  13
ATOM     13  C11  11 d         -13.452 204.909 116.484  0.00  0.00     0.137 C 
BRANCH  13  14
ATOM     14  C12  11 d         -13.351 205.891 115.270  0.00  0.00    -0.023 C 
ATOM     15  C13  11 d         -11.814 206.120 115.069  0.00  0.00     0.015 C 
ATOM     16  C14  11 d         -11.521 207.054 113.882  0.00  0.00    -0.013 C 
ATOM     17  C15  11 d         -12.175 208.426 114.150  0.00  0.00     0.009 C 
ATOM     18  C21  11 d         -12.102 206.419 112.599  0.00  0.00     0.009 C 
ATOM     19  C16  11 d         -13.703 208.244 114.318  0.00  0.00    -0.013 C 
ATOM     20  C17  11 d         -14.000 207.290 115.515  0.00  0.00     0.015 C 
ATOM     21  C18  11 d         -14.271 207.648 113.008  0.00  0.00     0.009 C 
ATOM     22  C19  11 d         -13.630 206.263 112.752  0.00  0.00    -0.013 C 
ATOM     23  C20  11 d         -13.940 205.332 113.945  0.00  0.00     0.015 C 
ENDBRANCH  13  14
ENDBRANCH   2  13
BRANCH   7  24
ATOM     24  O1   11 d          -8.274 207.739 117.950  0.00  0.00    -0.356 OA
ATOM     25  C7   11 d          -7.511 207.618 119.183  0.00  0.00     0.210 C 
ENDBRANCH   7  24
TORSDOF 3
ENDMDL
