MODEL 1
REMARK VINA RESULT:      -7.6      0.000      0.000
REMARK  3 active torsions:
REMARK  status: ('A' for Active; 'I' for Inactive)
REMARK    1  A    between atoms: C1_1  and  C14_18 
REMARK    2  A    between atoms: C2_2  and  S1_15 
REMARK    3  A    between atoms: S1_15  and  C12_16 
ROOT
ATOM      1  C1   11 d         -11.058 208.010 114.548  0.00  0.00     0.066 A 
ATOM      2  C2   11 d         -10.057 208.205 113.576  0.00  0.00     0.089 A 
ATOM      3  N1   11 d         -10.301 207.904 112.274  0.00  0.00    -0.302 N 
ATOM      4  C3   11 d         -11.497 207.409 111.873  0.00  0.00     0.332 A 
ATOM      5  N2   11 d         -12.506 207.200 112.783  0.00  0.00    -0.267 N 
ATOM      6  C4   11 d         -12.313 207.493 114.124  0.00  0.00     0.034 A 
ATOM      7  C5   11 d         -13.349 207.075 115.155  0.00  0.00     0.070 C 
ATOM      8  C6   11 d         -13.773 206.690 112.305  0.00  0.00     0.044 A 
ATOM      9  C7   11 d         -14.906 207.523 112.279  0.00  0.00     0.030 A 
ATOM     10  C8   11 d         -16.137 207.029 111.820  0.00  0.00     0.002 A 
ATOM     11  C9   11 d         -16.240 205.699 111.385  0.00  0.00     0.000 A 
ATOM     12  C10  11 d         -15.115 204.863 111.406  0.00  0.00     0.002 A 
ATOM     13  C11  11 d         -13.883 205.357 111.865  0.00  0.00     0.030 A 
ATOM     14  O1   11 d         -11.667 207.158 110.651  0.00  0.00    -0.246 OA
ATOM     15  H1   11 d          -9.553 208.061 111.556  0.00  0.00     0.171 HD
ENDROOT
BRANCH   1  16
ATOM     16  C14  11 d         -10.773 208.360 115.964  0.00  0.00     0.160 C 
ATOM     17  O2   11 d         -10.826 209.565 116.320  0.00  0.00    -0.293 OA
ATOM     18  C15  11 d         -10.276 207.337 116.942  0.00  0.00     0.097 C 
ENDBRANCH   1  16
BRANCH   2  19
ATOM     19  S1   11 d          -8.426 208.890 113.990  0.00  0.00    -0.112 SA
BRANCH  19  20
ATOM     20  C12  11 d          -7.965 209.204 112.239  0.00  0.00     0.076 C 
ATOM     21  C13  11 d          -6.756 208.364 111.857  0.00  0.00     0.016 C 
ENDBRANCH  19  20
ENDBRANCH   2  19
TORSDOF 3
ENDMDL
MODEL 2
REMARK VINA RESULT:      -7.3      1.867      2.149
REMARK  3 active torsions:
REMARK  status: ('A' for Active; 'I' for Inactive)
REMARK    1  A    between atoms: C1_1  and  C14_18 
REMARK    2  A    between atoms: C2_2  and  S1_15 
REMARK    3  A    between atoms: S1_15  and  C12_16 
ROOT
ATOM      1  C1   11 d         -12.192 207.126 116.325  0.00  0.00     0.066 A 
ATOM      2  C2   11 d         -11.056 207.723 115.744  0.00  0.00     0.089 A 
ATOM      3  N1   11 d         -10.976 207.871 114.396  0.00  0.00    -0.302 N 
ATOM      4  C3   11 d         -11.971 207.452 113.577  0.00  0.00     0.332 A 
ATOM      5  N2   11 d         -13.099 206.862 114.095  0.00  0.00    -0.267 N 
ATOM      6  C4   11 d         -13.235 206.690 115.464  0.00  0.00     0.034 A 
ATOM      7  C5   11 d         -14.382 205.861 116.021  0.00  0.00     0.070 C 
ATOM      8  C6   11 d         -14.145 206.449 113.184  0.00  0.00     0.044 A 
ATOM      9  C7   11 d         -15.365 207.148 113.145  0.00  0.00     0.030 A 
ATOM     10  C8   11 d         -16.382 206.746 112.264  0.00  0.00     0.002 A 
ATOM     11  C9   11 d         -16.183 205.644 111.419  0.00  0.00     0.000 A 
ATOM     12  C10  11 d         -14.968 204.944 111.451  0.00  0.00     0.002 A 
ATOM     13  C11  11 d         -13.950 205.346 112.332  0.00  0.00     0.030 A 
ATOM     14  O1   11 d         -11.845 207.624 112.336  0.00  0.00    -0.246 OA
ATOM     15  H1   11 d         -10.131 208.324 113.973  0.00  0.00     0.171 HD
ENDROOT
BRANCH   1  16
ATOM     16  C14  11 d         -12.263 206.989 117.804  0.00  0.00     0.160 C 
ATOM     17  O2   11 d         -12.752 207.926 118.484  0.00  0.00    -0.293 OA
ATOM     18  C15  11 d         -11.629 205.831 118.517  0.00  0.00     0.097 C 
ENDBRANCH   1  16
BRANCH   2  19
ATOM     19  S1   11 d          -9.673 208.351 116.743  0.00  0.00    -0.112 SA
BRANCH  19  20
ATOM     20  C12  11 d          -8.765 209.034 115.298  0.00  0.00     0.076 C 
ATOM     21  C13  11 d          -7.265 208.924 115.522  0.00  0.00     0.016 C 
ENDBRANCH  19  20
ENDBRANCH   2  19
TORSDOF 3
ENDMDL
MODEL 3
REMARK VINA RESULT:      -7.2      1.726      3.570
REMARK  3 active torsions:
REMARK  status: ('A' for Active; 'I' for Inactive)
REMARK    1  A    between atoms: C1_1  and  C14_18 
REMARK    2  A    between atoms: C2_2  and  S1_15 
REMARK    3  A    between atoms: S1_15  and  C12_16 
ROOT
ATOM      1  C1   11 d         -10.448 208.138 113.491  0.00  0.00     0.066 A 
ATOM      2  C2   11 d         -10.605 208.279 114.884  0.00  0.00     0.089 A 
ATOM      3  N1   11 d         -11.770 207.913 115.480  0.00  0.00    -0.302 N 
ATOM      4  C3   11 d         -12.806 207.411 114.765  0.00  0.00     0.332 A 
ATOM      5  N2   11 d         -12.702 207.255 113.403  0.00  0.00    -0.267 N 
ATOM      6  C4   11 d         -11.535 207.609 112.743  0.00  0.00     0.034 A 
ATOM      7  C5   11 d         -11.490 207.627 111.224  0.00  0.00     0.070 C 
ATOM      8  C6   11 d         -13.825 206.695 112.683  0.00  0.00     0.044 A 
ATOM      9  C7   11 d         -13.745 205.398 112.144  0.00  0.00     0.030 A 
ATOM     10  C8   11 d         -14.832 204.855 111.442  0.00  0.00     0.002 A 
ATOM     11  C9   11 d         -16.005 205.607 111.276  0.00  0.00     0.000 A 
ATOM     12  C10  11 d         -16.093 206.899 111.812  0.00  0.00     0.002 A 
ATOM     13  C11  11 d         -15.006 207.443 112.515  0.00  0.00     0.030 A 
ATOM     14  O1   11 d         -13.857 207.080 115.374  0.00  0.00    -0.246 OA
ATOM     15  H1   11 d         -11.876 208.013 116.519  0.00  0.00     0.171 HD
ENDROOT
BRANCH   1  16
ATOM     16  C14  11 d          -9.159 208.531 112.864  0.00  0.00     0.160 C 
ATOM     17  O2   11 d          -8.169 207.763 112.964  0.00  0.00    -0.293 OA
ATOM     18  C15  11 d          -8.966 209.885 112.247  0.00  0.00     0.097 C 
ENDBRANCH   1  16
BRANCH   2  19
ATOM     19  S1   11 d          -9.277 208.912 115.950  0.00  0.00    -0.112 SA
BRANCH  19  20
ATOM     20  C12  11 d          -9.661 207.766 117.335  0.00  0.00     0.076 C 
ATOM     21  C13  11 d         -10.045 208.555 118.577  0.00  0.00     0.016 C 
ENDBRANCH  19  20
ENDBRANCH   2  19
TORSDOF 3
ENDMDL
MODEL 4
REMARK VINA RESULT:      -7.1      2.759      3.662
REMARK  3 active torsions:
REMARK  status: ('A' for Active; 'I' for Inactive)
REMARK    1  A    between atoms: C1_1  and  C14_18 
REMARK    2  A    between atoms: C2_2  and  S1_15 
REMARK    3  A    between atoms: S1_15  and  C12_16 
ROOT
ATOM      1  C1   11 d         -13.081 206.092 116.468  0.00  0.00     0.066 A 
ATOM      2  C2   11 d         -11.691 206.315 116.417  0.00  0.00     0.089 A 
ATOM      3  N1   11 d         -11.080 206.545 115.225  0.00  0.00    -0.302 N 
ATOM      4  C3   11 d         -11.777 206.563 114.063  0.00  0.00     0.332 A 
ATOM      5  N2   11 d         -13.135 206.350 114.061  0.00  0.00    -0.267 N 
ATOM      6  C4   11 d         -13.810 206.114 115.248  0.00  0.00     0.034 A 
ATOM      7  C5   11 d         -15.267 205.680 115.227  0.00  0.00     0.070 C 
ATOM      8  C6   11 d         -13.841 206.400 112.799  0.00  0.00     0.044 A 
ATOM      9  C7   11 d         -14.705 207.473 112.513  0.00  0.00     0.030 A 
ATOM     10  C8   11 d         -15.394 207.521 111.291  0.00  0.00     0.002 A 
ATOM     11  C9   11 d         -15.222 206.496 110.349  0.00  0.00     0.000 A 
ATOM     12  C10  11 d         -14.360 205.424 110.626  0.00  0.00     0.002 A 
ATOM     13  C11  11 d         -13.671 205.376 111.848  0.00  0.00     0.030 A 
ATOM     14  O1   11 d         -11.158 206.791 112.990  0.00  0.00    -0.246 OA
ATOM     15  H1   11 d         -10.046 206.719 115.196  0.00  0.00     0.171 HD
ENDROOT
BRANCH   1  16
ATOM     16  C14  11 d         -13.729 205.857 117.786  0.00  0.00     0.160 C 
ATOM     17  O2   11 d         -14.081 204.690 118.097  0.00  0.00    -0.293 OA
ATOM     18  C15  11 d         -14.112 206.993 118.687  0.00  0.00     0.097 C 
ENDBRANCH   1  16
BRANCH   2  19
ATOM     19  S1   11 d         -10.658 206.343 117.911  0.00  0.00    -0.112 SA
BRANCH  19  20
ATOM     20  C12  11 d         -10.601 208.178 117.998  0.00  0.00     0.076 C 
ATOM     21  C13  11 d          -9.532 208.623 118.984  0.00  0.00     0.016 C 
ENDBRANCH  19  20
ENDBRANCH   2  19
TORSDOF 3
ENDMDL
MODEL 5
REMARK VINA RESULT:      -6.9      2.835      5.194
REMARK  3 active torsions:
REMARK  status: ('A' for Active; 'I' for Inactive)
REMARK    1  A    between atoms: C1_1  and  C14_18 
REMARK    2  A    between atoms: C2_2  and  S1_15 
REMARK    3  A    between atoms: S1_15  and  C12_16 
ROOT
ATOM      1  C1   11 d         -13.396 206.381 113.355  0.00  0.00     0.066 A 
ATOM      2  C2   11 d         -12.026 206.706 113.298  0.00  0.00     0.089 A 
ATOM      3  N1   11 d         -11.278 206.715 114.432  0.00  0.00    -0.302 N 
ATOM      4  C3   11 d         -11.818 206.420 115.640  0.00  0.00     0.332 A 
ATOM      5  N2   11 d         -13.150 206.099 115.748  0.00  0.00    -0.267 N 
ATOM      6  C4   11 d         -13.959 206.071 114.623  0.00  0.00     0.034 A 
ATOM      7  C5   11 d         -15.464 205.914 114.767  0.00  0.00     0.070 C 
ATOM      8  C6   11 d         -13.677 205.771 117.055  0.00  0.00     0.044 A 
ATOM      9  C7   11 d         -14.043 204.446 117.359  0.00  0.00     0.030 A 
ATOM     10  C8   11 d         -14.558 204.127 118.624  0.00  0.00     0.002 A 
ATOM     11  C9   11 d         -14.712 205.131 119.592  0.00  0.00     0.000 A 
ATOM     12  C10  11 d         -14.348 206.453 119.298  0.00  0.00     0.002 A 
ATOM     13  C11  11 d         -13.832 206.773 118.032  0.00  0.00     0.030 A 
ATOM     14  O1   11 d         -11.073 206.436 116.654  0.00  0.00    -0.246 OA
ATOM     15  H1   11 d         -10.257 206.949 114.379  0.00  0.00     0.171 HD
ENDROOT
BRANCH   1  16
ATOM     16  C14  11 d         -14.190 206.364 112.099  0.00  0.00     0.160 C 
ATOM     17  O2   11 d         -14.748 207.421 111.711  0.00  0.00    -0.293 OA
ATOM     18  C15  11 d         -14.470 205.086 111.364  0.00  0.00     0.097 C 
ENDBRANCH   1  16
BRANCH   2  19
ATOM     19  S1   11 d         -11.186 207.088 111.733  0.00  0.00    -0.112 SA
BRANCH  19  20
ATOM     20  C12  11 d         -10.206 208.472 112.443  0.00  0.00     0.076 C 
ATOM     21  C13  11 d          -8.771 208.408 111.943  0.00  0.00     0.016 C 
ENDBRANCH  19  20
ENDBRANCH   2  19
TORSDOF 3
ENDMDL
MODEL 6
REMARK VINA RESULT:      -6.7      2.607      5.907
REMARK  3 active torsions:
REMARK  status: ('A' for Active; 'I' for Inactive)
REMARK    1  A    between atoms: C1_1  and  C14_18 
REMARK    2  A    between atoms: C2_2  and  S1_15 
REMARK    3  A    between atoms: S1_15  and  C12_16 
ROOT
ATOM      1  C1   11 d         -13.640 206.722 113.238  0.00  0.00     0.066 A 
ATOM      2  C2   11 d         -13.840 206.077 112.002  0.00  0.00     0.089 A 
ATOM      3  N1   11 d         -12.891 206.149 111.032  0.00  0.00    -0.302 N 
ATOM      4  C3   11 d         -11.738 206.837 111.218  0.00  0.00     0.332 A 
ATOM      5  N2   11 d         -11.497 207.484 112.407  0.00  0.00    -0.267 N 
ATOM      6  C4   11 d         -12.429 207.440 113.432  0.00  0.00     0.034 A 
ATOM      7  C5   11 d         -12.254 208.316 114.662  0.00  0.00     0.070 C 
ATOM      8  C6   11 d         -10.242 208.188 112.568  0.00  0.00     0.044 A 
ATOM      9  C7   11 d          -9.256 207.685 113.436  0.00  0.00     0.030 A 
ATOM     10  C8   11 d          -8.041 208.369 113.596  0.00  0.00     0.002 A 
ATOM     11  C9   11 d          -7.807 209.559 112.890  0.00  0.00     0.000 A 
ATOM     12  C10  11 d          -8.785 210.064 112.022  0.00  0.00     0.002 A 
ATOM     13  C11  11 d         -10.001 209.380 111.860  0.00  0.00     0.030 A 
ATOM     14  O1   11 d         -10.892 206.860 110.287  0.00  0.00    -0.246 OA
ATOM     15  H1   11 d         -13.045 205.659 110.118  0.00  0.00     0.171 HD
ENDROOT
BRANCH   1  16
ATOM     16  C14  11 d         -14.686 206.616 114.289  0.00  0.00     0.160 C 
ATOM     17  O2   11 d         -15.570 207.507 114.365  0.00  0.00    -0.293 OA
ATOM     18  C15  11 d         -14.628 205.561 115.353  0.00  0.00     0.097 C 
ENDBRANCH   1  16
BRANCH   2  19
ATOM     19  S1   11 d         -15.332 205.102 111.648  0.00  0.00    -0.112 SA
BRANCH  19  20
ATOM     20  C12  11 d         -16.270 206.532 110.976  0.00  0.00     0.076 C 
ATOM     21  C13  11 d         -17.642 206.612 111.627  0.00  0.00     0.016 C 
ENDBRANCH  19  20
ENDBRANCH   2  19
TORSDOF 3
ENDMDL
MODEL 7
REMARK VINA RESULT:      -6.7      3.235      5.066
REMARK  3 active torsions:
REMARK  status: ('A' for Active; 'I' for Inactive)
REMARK    1  A    between atoms: C1_1  and  C14_18 
REMARK    2  A    between atoms: C2_2  and  S1_15 
REMARK    3  A    between atoms: S1_15  and  C12_16 
ROOT
ATOM      1  C1   11 d         -12.535 206.846 116.197  0.00  0.00     0.066 A 
ATOM      2  C2   11 d         -13.507 206.291 117.052  0.00  0.00     0.089 A 
ATOM      3  N1   11 d         -14.674 205.816 116.542  0.00  0.00    -0.302 N 
ATOM      4  C3   11 d         -14.939 205.864 115.214  0.00  0.00     0.332 A 
ATOM      5  N2   11 d         -14.023 206.397 114.339  0.00  0.00    -0.267 N 
ATOM      6  C4   11 d         -12.815 206.893 114.804  0.00  0.00     0.034 A 
ATOM      7  C5   11 d         -11.893 207.661 113.870  0.00  0.00     0.070 C 
ATOM      8  C6   11 d         -14.340 206.408 112.927  0.00  0.00     0.044 A 
ATOM      9  C7   11 d         -13.657 205.554 112.042  0.00  0.00     0.030 A 
ATOM     10  C8   11 d         -13.961 205.566 110.672  0.00  0.00     0.002 A 
ATOM     11  C9   11 d         -14.949 206.432 110.180  0.00  0.00     0.000 A 
ATOM     12  C10  11 d         -15.635 207.284 111.057  0.00  0.00     0.002 A 
ATOM     13  C11  11 d         -15.332 207.272 112.428  0.00  0.00     0.030 A 
ATOM     14  O1   11 d         -16.033 205.400 114.799  0.00  0.00    -0.246 OA
ATOM     15  H1   11 d         -15.388 205.396 117.185  0.00  0.00     0.171 HD
ENDROOT
BRANCH   1  16
ATOM     16  C14  11 d         -11.260 207.346 116.776  0.00  0.00     0.160 C 
ATOM     17  O2   11 d         -10.343 206.526 117.037  0.00  0.00    -0.293 OA
ATOM     18  C15  11 d         -11.095 208.775 117.197  0.00  0.00     0.097 C 
ENDBRANCH   1  16
BRANCH   2  19
ATOM     19  S1   11 d         -13.251 206.146 118.845  0.00  0.00    -0.112 SA
BRANCH  19  20
ATOM     20  C12  11 d         -14.525 204.837 119.055  0.00  0.00     0.076 C 
ATOM     21  C13  11 d         -14.819 204.625 120.532  0.00  0.00     0.016 C 
ENDBRANCH  19  20
ENDBRANCH   2  19
TORSDOF 3
ENDMDL
MODEL 8
REMARK VINA RESULT:      -6.5      2.781      4.237
REMARK  3 active torsions:
REMARK  status: ('A' for Active; 'I' for Inactive)
REMARK    1  A    between atoms: C1_1  and  C14_18 
REMARK    2  A    between atoms: C2_2  and  S1_15 
REMARK    3  A    between atoms: S1_15  and  C12_16 
ROOT
ATOM      1  C1   11 d         -11.015 206.967 117.714  0.00  0.00     0.066 A 
ATOM      2  C2   11 d         -10.086 208.023 117.799  0.00  0.00     0.089 A 
ATOM      3  N1   11 d          -9.793 208.765 116.700  0.00  0.00    -0.302 N 
ATOM      4  C3   11 d         -10.374 208.516 115.500  0.00  0.00     0.332 A 
ATOM      5  N2   11 d         -11.286 207.497 115.366  0.00  0.00    -0.267 N 
ATOM      6  C4   11 d         -11.625 206.710 116.456  0.00  0.00     0.034 A 
ATOM      7  C5   11 d         -12.474 205.463 116.265  0.00  0.00     0.070 C 
ATOM      8  C6   11 d         -11.896 207.281 114.071  0.00  0.00     0.044 A 
ATOM      9  C7   11 d         -13.253 207.594 113.868  0.00  0.00     0.030 A 
ATOM     10  C8   11 d         -13.847 207.383 112.614  0.00  0.00     0.002 A 
ATOM     11  C9   11 d         -13.088 206.856 111.558  0.00  0.00     0.000 A 
ATOM     12  C10  11 d         -11.735 206.543 111.753  0.00  0.00     0.002 A 
ATOM     13  C11  11 d         -11.139 206.755 113.007  0.00  0.00     0.030 A 
ATOM     14  O1   11 d         -10.070 209.244 114.519  0.00  0.00    -0.246 OA
ATOM     15  H1   11 d          -9.107 209.554 116.774  0.00  0.00     0.171 HD
ENDROOT
BRANCH   1  16
ATOM     16  C14  11 d         -11.331 206.178 118.934  0.00  0.00     0.160 C 
ATOM     17  O2   11 d         -10.433 205.470 119.455  0.00  0.00    -0.293 OA
ATOM     18  C15  11 d         -12.728 206.086 119.470  0.00  0.00     0.097 C 
ENDBRANCH   1  16
BRANCH   2  19
ATOM     19  S1   11 d          -9.267 208.469 119.358  0.00  0.00    -0.112 SA
BRANCH  19  20
ATOM     20  C12  11 d          -7.643 207.765 118.861  0.00  0.00     0.076 C 
ATOM     21  C13  11 d          -7.161 206.772 119.908  0.00  0.00     0.016 C 
ENDBRANCH  19  20
ENDBRANCH   2  19
TORSDOF 3
ENDMDL
MODEL 9
REMARK VINA RESULT:      -6.4      2.689      5.523
REMARK  3 active torsions:
REMARK  status: ('A' for Active; 'I' for Inactive)
REMARK    1  A    between atoms: C1_1  and  C14_18 
REMARK    2  A    between atoms: C2_2  and  S1_15 
REMARK    3  A    between atoms: S1_15  and  C12_16 
ROOT
ATOM      1  C1   11 d         -14.320 206.152 112.766  0.00  0.00     0.066 A 
ATOM      2  C2   11 d         -13.235 206.838 112.187  0.00  0.00     0.089 A 
ATOM      3  N1   11 d         -12.269 207.377 112.975  0.00  0.00    -0.302 N 
ATOM      4  C3   11 d         -12.318 207.278 114.326  0.00  0.00     0.332 A 
ATOM      5  N2   11 d         -13.358 206.619 114.939  0.00  0.00    -0.267 N 
ATOM      6  C4   11 d         -14.369 206.047 114.183  0.00  0.00     0.034 A 
ATOM      7  C5   11 d         -15.614 205.497 114.861  0.00  0.00     0.070 C 
ATOM      8  C6   11 d         -13.357 206.519 116.382  0.00  0.00     0.044 A 
ATOM      9  C7   11 d         -13.115 205.282 117.006  0.00  0.00     0.030 A 
ATOM     10  C8   11 d         -13.118 205.183 118.406  0.00  0.00     0.002 A 
ATOM     11  C9   11 d         -13.365 206.321 119.189  0.00  0.00     0.000 A 
ATOM     12  C10  11 d         -13.606 207.558 118.574  0.00  0.00     0.002 A 
ATOM     13  C11  11 d         -13.602 207.658 117.174  0.00  0.00     0.030 A 
ATOM     14  O1   11 d         -11.389 207.790 115.004  0.00  0.00    -0.246 OA
ATOM     15  H1   11 d         -11.460 207.879 112.535  0.00  0.00     0.171 HD
ENDROOT
BRANCH   1  16
ATOM     16  C14  11 d         -15.358 205.557 111.882  0.00  0.00     0.160 C 
ATOM     17  O2   11 d         -15.166 204.414 111.395  0.00  0.00    -0.293 OA
ATOM     18  C15  11 d         -16.553 206.344 111.434  0.00  0.00     0.097 C 
ENDBRANCH   1  16
BRANCH   2  19
ATOM     19  S1   11 d         -13.046 207.010 110.388  0.00  0.00    -0.112 SA
BRANCH  19  20
ATOM     20  C12  11 d         -11.209 206.995 110.445  0.00  0.00     0.076 C 
ATOM     21  C13  11 d         -10.660 208.343 110.004  0.00  0.00     0.016 C 
ENDBRANCH  19  20
ENDBRANCH   2  19
TORSDOF 3
ENDMDL
MODEL 10
REMARK VINA RESULT:      -6.1      2.652      3.510
REMARK  3 active torsions:
REMARK  status: ('A' for Active; 'I' for Inactive)
REMARK    1  A    between atoms: C1_1  and  C14_18 
REMARK    2  A    between atoms: C2_2  and  S1_15 
REMARK    3  A    between atoms: S1_15  and  C12_16 
ROOT
ATOM      1  C1   11 d          -9.436 207.967 117.481  0.00  0.00     0.066 A 
ATOM      2  C2   11 d          -8.344 208.417 116.713  0.00  0.00     0.089 A 
ATOM      3  N1   11 d          -8.483 208.604 115.374  0.00  0.00    -0.302 N 
ATOM      4  C3   11 d          -9.657 208.363 114.742  0.00  0.00     0.332 A 
ATOM      5  N2   11 d         -10.751 207.921 115.448  0.00  0.00    -0.267 N 
ATOM      6  C4   11 d         -10.667 207.717 116.816  0.00  0.00     0.034 A 
ATOM      7  C5   11 d         -11.808 207.041 117.560  0.00  0.00     0.070 C 
ATOM      8  C6   11 d         -11.990 207.698 114.734  0.00  0.00     0.044 A 
ATOM      9  C7   11 d         -13.082 208.564 114.924  0.00  0.00     0.030 A 
ATOM     10  C8   11 d         -14.285 208.347 114.235  0.00  0.00     0.002 A 
ATOM     11  C9   11 d         -14.403 207.260 113.355  0.00  0.00     0.000 A 
ATOM     12  C10  11 d         -13.318 206.394 113.160  0.00  0.00     0.002 A 
ATOM     13  C11  11 d         -12.113 206.611 113.847  0.00  0.00     0.030 A 
ATOM     14  O1   11 d          -9.727 208.563 113.501  0.00  0.00    -0.246 OA
ATOM     15  H1   11 d          -7.668 208.948 114.811  0.00  0.00     0.171 HD
ENDROOT
BRANCH   1  16
ATOM     16  C14  11 d          -9.265 207.784 118.947  0.00  0.00     0.160 C 
ATOM     17  O2   11 d          -9.480 208.756 119.715  0.00  0.00    -0.293 OA
ATOM     18  C15  11 d          -8.697 206.520 119.519  0.00  0.00     0.097 C 
ENDBRANCH   1  16
BRANCH   2  19
ATOM     19  S1   11 d          -6.730 208.802 117.453  0.00  0.00    -0.112 SA
BRANCH  19  20
ATOM     20  C12  11 d          -5.775 208.258 115.980  0.00  0.00     0.076 C 
ATOM     21  C13  11 d          -5.072 206.941 116.269  0.00  0.00     0.016 C 
ENDBRANCH  19  20
ENDBRANCH   2  19
TORSDOF 3
ENDMDL
