MODEL 1
REMARK VINA RESULT:      -7.4      0.000      0.000
REMARK  2 active torsions:
REMARK  status: ('A' for Active; 'I' for Inactive)
REMARK    1  A    between atoms: C1_1  and  O1_13 
REMARK    2  A    between atoms: O1_13  and  C10_14 
ROOT
ATOM      1  C1   11 d         -13.408 206.393 112.704  0.00  0.00     0.126 A 
ATOM      2  C2   11 d         -12.304 207.001 112.065  0.00  0.00     0.103 A 
ATOM      3  C3   11 d         -11.338 207.724 112.818  0.00  0.00     0.013 A 
ATOM      4  C4   11 d         -11.481 207.818 114.220  0.00  0.00     0.025 A 
ATOM      5 Br1   11 d         -10.238 208.775 115.358  0.00  0.00    -0.050 Br
ATOM      6  C5   11 d         -12.561 207.188 114.852  0.00  0.00     0.042 A 
ATOM      7  C6   11 d         -13.515 206.474 114.113  0.00  0.00     0.048 A 
ATOM      8 Br2   11 d         -14.889 205.564 115.122  0.00  0.00    -0.048 Br
ATOM      9  C7   11 d         -10.264 208.326 112.128  0.00  0.00     0.017 A 
ATOM     10  C8   11 d         -10.161 208.206 110.736  0.00  0.00     0.020 A 
ATOM     11  C9   11 d         -11.133 207.486 110.034  0.00  0.00     0.117 A 
ATOM     12  N1   11 d         -12.168 206.910 110.705  0.00  0.00    -0.257 NA
ENDROOT
BRANCH   1  13
ATOM     13  O1   11 d         -14.356 205.693 111.896  0.00  0.00    -0.275 OA
BRANCH  13  14
ATOM     14  C10  11 d         -15.520 206.477 111.664  0.00  0.00     0.260 C 
ATOM     15  O2   11 d         -15.419 207.592 111.094  0.00  0.00    -0.265 OA
ATOM     16  C11  11 d         -16.875 205.912 111.941  0.00  0.00     0.126 C 
ENDBRANCH  13  14
ENDBRANCH   1  13
TORSDOF 2
ENDMDL
MODEL 2
REMARK VINA RESULT:      -7.0      2.903      5.395
REMARK  2 active torsions:
REMARK  status: ('A' for Active; 'I' for Inactive)
REMARK    1  A    between atoms: C1_1  and  O1_13 
REMARK    2  A    between atoms: O1_13  and  C10_14 
ROOT
ATOM      1  C1   11 d         -12.087 206.660 112.671  0.00  0.00     0.126 A 
ATOM      2  C2   11 d         -13.015 206.241 113.651  0.00  0.00     0.103 A 
ATOM      3  C3   11 d         -14.403 206.164 113.350  0.00  0.00     0.013 A 
ATOM      4  C4   11 d         -14.850 206.497 112.051  0.00  0.00     0.025 A 
ATOM      5 Br1   11 d         -16.712 206.437 111.516  0.00  0.00    -0.050 Br
ATOM      6  C5   11 d         -13.922 206.884 111.075  0.00  0.00     0.042 A 
ATOM      7  C6   11 d         -12.553 206.959 111.368  0.00  0.00     0.048 A 
ATOM      8 Br2   11 d         -11.376 207.399 109.900  0.00  0.00    -0.048 Br
ATOM      9  C7   11 d         -15.289 205.755 114.370  0.00  0.00     0.017 A 
ATOM     10  C8   11 d         -14.801 205.433 115.643  0.00  0.00     0.020 A 
ATOM     11  C9   11 d         -13.429 205.522 115.897  0.00  0.00     0.117 A 
ATOM     12  N1   11 d         -12.580 205.919 114.908  0.00  0.00    -0.257 NA
ENDROOT
BRANCH   1  13
ATOM     13  O1   11 d         -10.707 206.733 113.033  0.00  0.00    -0.275 OA
BRANCH  13  14
ATOM     14  C10  11 d         -10.325 208.065 113.357  0.00  0.00     0.260 C 
ATOM     15  O2   11 d         -10.723 208.586 114.429  0.00  0.00    -0.265 OA
ATOM     16  C11  11 d          -9.322 208.786 112.516  0.00  0.00     0.126 C 
ENDBRANCH  13  14
ENDBRANCH   1  13
TORSDOF 2
ENDMDL
MODEL 3
REMARK VINA RESULT:      -6.8      2.766      4.328
REMARK  2 active torsions:
REMARK  status: ('A' for Active; 'I' for Inactive)
REMARK    1  A    between atoms: C1_1  and  O1_13 
REMARK    2  A    between atoms: O1_13  and  C10_14 
ROOT
ATOM      1  C1   11 d         -13.844 207.530 114.277  0.00  0.00     0.126 A 
ATOM      2  C2   11 d         -14.527 207.178 113.091  0.00  0.00     0.103 A 
ATOM      3  C3   11 d         -13.832 207.089 111.853  0.00  0.00     0.013 A 
ATOM      4  C4   11 d         -12.442 207.342 111.818  0.00  0.00     0.025 A 
ATOM      5 Br1   11 d         -11.383 207.259 110.198  0.00  0.00    -0.050 Br
ATOM      6  C5   11 d         -11.764 207.662 113.003  0.00  0.00     0.042 A 
ATOM      7  C6   11 d         -12.446 207.749 114.225  0.00  0.00     0.048 A 
ATOM      8 Br2   11 d         -11.371 208.089 115.794  0.00  0.00    -0.048 Br
ATOM      9  C7   11 d         -14.565 206.750 110.696  0.00  0.00     0.017 A 
ATOM     10  C8   11 d         -15.942 206.507 110.777  0.00  0.00     0.020 A 
ATOM     11  C9   11 d         -16.586 206.604 112.014  0.00  0.00     0.117 A 
ATOM     12  N1   11 d         -15.873 206.934 113.126  0.00  0.00    -0.257 NA
ENDROOT
BRANCH   1  13
ATOM     13  O1   11 d         -14.594 207.618 115.489  0.00  0.00    -0.275 OA
BRANCH  13  14
ATOM     14  C10  11 d         -14.340 206.507 116.340  0.00  0.00     0.260 C 
ATOM     15  O2   11 d         -14.019 206.698 117.540  0.00  0.00    -0.265 OA
ATOM     16  C11  11 d         -14.614 205.117 115.864  0.00  0.00     0.126 C 
ENDBRANCH  13  14
ENDBRANCH   1  13
TORSDOF 2
ENDMDL
MODEL 4
REMARK VINA RESULT:      -6.6      2.199      2.597
REMARK  2 active torsions:
REMARK  status: ('A' for Active; 'I' for Inactive)
REMARK    1  A    between atoms: C1_1  and  O1_13 
REMARK    2  A    between atoms: O1_13  and  C10_14 
ROOT
ATOM      1  C1   11 d         -12.354 207.317 114.629  0.00  0.00     0.126 A 
ATOM      2  C2   11 d         -11.825 207.447 113.326  0.00  0.00     0.103 A 
ATOM      3  C3   11 d         -10.580 208.100 113.110  0.00  0.00     0.013 A 
ATOM      4  C4   11 d          -9.863 208.608 114.216  0.00  0.00     0.025 A 
ATOM      5 Br1   11 d          -8.161 209.521 114.056  0.00  0.00    -0.050 Br
ATOM      6  C5   11 d         -10.378 208.451 115.510  0.00  0.00     0.042 A 
ATOM      7  C6   11 d         -11.605 207.806 115.726  0.00  0.00     0.048 A 
ATOM      8 Br2   11 d         -12.141 207.561 117.566  0.00  0.00    -0.048 Br
ATOM      9  C7   11 d         -10.106 208.218 111.786  0.00  0.00     0.017 A 
ATOM     10  C8   11 d         -10.850 207.698 110.719  0.00  0.00     0.020 A 
ATOM     11  C9   11 d         -12.069 207.062 110.975  0.00  0.00     0.117 A 
ATOM     12  N1   11 d         -12.522 206.954 112.255  0.00  0.00    -0.257 NA
ENDROOT
BRANCH   1  13
ATOM     13  O1   11 d         -13.616 206.665 114.786  0.00  0.00    -0.275 OA
BRANCH  13  14
ATOM     14  C10  11 d         -14.696 207.556 114.535  0.00  0.00     0.260 C 
ATOM     15  O2   11 d         -15.683 207.168 113.862  0.00  0.00    -0.265 OA
ATOM     16  C11  11 d         -14.740 208.891 115.204  0.00  0.00     0.126 C 
ENDBRANCH  13  14
ENDBRANCH   1  13
TORSDOF 2
ENDMDL
MODEL 5
REMARK VINA RESULT:      -6.5      2.501      4.195
REMARK  2 active torsions:
REMARK  status: ('A' for Active; 'I' for Inactive)
REMARK    1  A    between atoms: C1_1  and  O1_13 
REMARK    2  A    between atoms: O1_13  and  C10_14 
ROOT
ATOM      1  C1   11 d         -12.818 206.141 113.999  0.00  0.00     0.126 A 
ATOM      2  C2   11 d         -12.848 206.498 112.632  0.00  0.00     0.103 A 
ATOM      3  C3   11 d         -14.077 206.523 111.916  0.00  0.00     0.013 A 
ATOM      4  C4   11 d         -15.277 206.203 112.588  0.00  0.00     0.025 A 
ATOM      5 Br1   11 d         -17.014 206.197 111.727  0.00  0.00    -0.050 Br
ATOM      6  C5   11 d         -15.245 205.878 113.951  0.00  0.00     0.042 A 
ATOM      7  C6   11 d         -14.036 205.853 114.660  0.00  0.00     0.048 A 
ATOM      8 Br2   11 d         -14.151 205.497 116.556  0.00  0.00    -0.048 Br
ATOM      9  C7   11 d         -14.049 206.871 110.549  0.00  0.00     0.017 A 
ATOM     10  C8   11 d         -12.835 207.183 109.923  0.00  0.00     0.020 A 
ATOM     11  C9   11 d         -11.649 207.145 110.663  0.00  0.00     0.117 A 
ATOM     12  N1   11 d         -11.683 206.807 111.982  0.00  0.00    -0.257 NA
ENDROOT
BRANCH   1  13
ATOM     13  O1   11 d         -11.553 206.117 114.664  0.00  0.00    -0.275 OA
BRANCH  13  14
ATOM     14  C10  11 d         -11.356 207.288 115.447  0.00  0.00     0.260 C 
ATOM     15  O2   11 d         -11.746 208.401 115.016  0.00  0.00    -0.265 OA
ATOM     16  C11  11 d         -10.841 207.180 116.846  0.00  0.00     0.126 C 
ENDBRANCH  13  14
ENDBRANCH   1  13
TORSDOF 2
ENDMDL
MODEL 6
REMARK VINA RESULT:      -6.4      2.885      3.938
REMARK  2 active torsions:
REMARK  status: ('A' for Active; 'I' for Inactive)
REMARK    1  A    between atoms: C1_1  and  O1_13 
REMARK    2  A    between atoms: O1_13  and  C10_14 
ROOT
ATOM      1  C1   11 d         -12.731 207.116 114.342  0.00  0.00     0.126 A 
ATOM      2  C2   11 d         -11.492 207.770 114.158  0.00  0.00     0.103 A 
ATOM      3  C3   11 d         -10.938 207.922 112.857  0.00  0.00     0.013 A 
ATOM      4  C4   11 d         -11.646 207.426 111.740  0.00  0.00     0.025 A 
ATOM      5 Br1   11 d         -10.999 207.565 109.918  0.00  0.00    -0.050 Br
ATOM      6  C5   11 d         -12.888 206.804 111.925  0.00  0.00     0.042 A 
ATOM      7  C6   11 d         -13.438 206.653 113.206  0.00  0.00     0.048 A 
ATOM      8 Br2   11 d         -15.205 205.877 113.305  0.00  0.00    -0.048 Br
ATOM      9  C7   11 d          -9.690 208.569 112.731  0.00  0.00     0.017 A 
ATOM     10  C8   11 d          -9.023 209.047 113.866  0.00  0.00     0.020 A 
ATOM     11  C9   11 d          -9.603 208.877 115.128  0.00  0.00     0.117 A 
ATOM     12  N1   11 d         -10.807 208.250 115.242  0.00  0.00    -0.257 NA
ENDROOT
BRANCH   1  13
ATOM     13  O1   11 d         -13.233 206.978 115.673  0.00  0.00    -0.275 OA
BRANCH  13  14
ATOM     14  C10  11 d         -13.051 205.654 116.162  0.00  0.00     0.260 C 
ATOM     15  O2   11 d         -11.913 205.122 116.118  0.00  0.00    -0.265 OA
ATOM     16  C11  11 d         -14.162 204.956 116.876  0.00  0.00     0.126 C 
ENDBRANCH  13  14
ENDBRANCH   1  13
TORSDOF 2
ENDMDL
MODEL 7
REMARK VINA RESULT:      -6.3      2.485      3.954
REMARK  2 active torsions:
REMARK  status: ('A' for Active; 'I' for Inactive)
REMARK    1  A    between atoms: C1_1  and  O1_13 
REMARK    2  A    between atoms: O1_13  and  C10_14 
ROOT
ATOM      1  C1   11 d         -13.419 206.288 113.965  0.00  0.00     0.126 A 
ATOM      2  C2   11 d         -13.138 206.609 115.312  0.00  0.00     0.103 A 
ATOM      3  C3   11 d         -12.022 207.426 115.645  0.00  0.00     0.013 A 
ATOM      4  C4   11 d         -11.199 207.930 114.613  0.00  0.00     0.025 A 
ATOM      5 Br1   11 d          -9.649 209.047 114.934  0.00  0.00    -0.050 Br
ATOM      6  C5   11 d         -11.500 207.632 113.277  0.00  0.00     0.042 A 
ATOM      7  C6   11 d         -12.600 206.828 112.945  0.00  0.00     0.048 A 
ATOM      8 Br2   11 d         -12.962 206.590 111.062  0.00  0.00    -0.048 Br
ATOM      9  C7   11 d         -11.776 207.703 117.007  0.00  0.00     0.017 A 
ATOM     10  C8   11 d         -12.619 207.183 117.998  0.00  0.00     0.020 A 
ATOM     11  C9   11 d         -13.706 206.385 117.627  0.00  0.00     0.117 A 
ATOM     12  N1   11 d         -13.936 206.120 116.311  0.00  0.00    -0.257 NA
ENDROOT
BRANCH   1  13
ATOM     13  O1   11 d         -14.545 205.451 113.690  0.00  0.00    -0.275 OA
BRANCH  13  14
ATOM     14  C10  11 d         -15.660 206.212 113.241  0.00  0.00     0.260 C 
ATOM     15  O2   11 d         -15.884 207.344 113.737  0.00  0.00    -0.265 OA
ATOM     16  C11  11 d         -16.466 205.748 112.071  0.00  0.00     0.126 C 
ENDBRANCH  13  14
ENDBRANCH   1  13
TORSDOF 2
ENDMDL
MODEL 8
REMARK VINA RESULT:      -6.1      3.766      5.264
REMARK  2 active torsions:
REMARK  status: ('A' for Active; 'I' for Inactive)
REMARK    1  A    between atoms: C1_1  and  O1_13 
REMARK    2  A    between atoms: O1_13  and  C10_14 
ROOT
ATOM      1  C1   11 d         -10.866 208.421 115.473  0.00  0.00     0.126 A 
ATOM      2  C2   11 d          -9.930 208.666 114.443  0.00  0.00     0.103 A 
ATOM      3  C3   11 d         -10.188 208.234 113.112  0.00  0.00     0.013 A 
ATOM      4  C4   11 d         -11.400 207.569 112.821  0.00  0.00     0.025 A 
ATOM      5 Br1   11 d         -11.868 206.928 111.053  0.00  0.00    -0.050 Br
ATOM      6  C5   11 d         -12.337 207.355 113.841  0.00  0.00     0.042 A 
ATOM      7  C6   11 d         -12.086 207.779 115.154  0.00  0.00     0.048 A 
ATOM      8 Br2   11 d         -13.509 207.518 116.435  0.00  0.00    -0.048 Br
ATOM      9  C7   11 d          -9.213 208.490 112.124  0.00  0.00     0.017 A 
ATOM     10  C8   11 d          -8.026 209.154 112.457  0.00  0.00     0.020 A 
ATOM     11  C9   11 d          -7.812 209.562 113.777  0.00  0.00     0.117 A 
ATOM     12  N1   11 d          -8.756 209.310 114.726  0.00  0.00    -0.257 NA
ENDROOT
BRANCH   1  13
ATOM     13  O1   11 d         -10.548 208.863 116.794  0.00  0.00    -0.275 OA
BRANCH  13  14
ATOM     14  C10  11 d          -9.888 207.845 117.538  0.00  0.00     0.260 C 
ATOM     15  O2   11 d         -10.516 206.812 117.878  0.00  0.00    -0.265 OA
ATOM     16  C11  11 d          -8.414 207.921 117.773  0.00  0.00     0.126 C 
ENDBRANCH  13  14
ENDBRANCH   1  13
TORSDOF 2
ENDMDL
MODEL 9
REMARK VINA RESULT:      -6.1      2.687      3.728
REMARK  2 active torsions:
REMARK  status: ('A' for Active; 'I' for Inactive)
REMARK    1  A    between atoms: C1_1  and  O1_13 
REMARK    2  A    between atoms: O1_13  and  C10_14 
ROOT
ATOM      1  C1   11 d         -12.309 207.562 115.163  0.00  0.00     0.126 A 
ATOM      2  C2   11 d         -12.364 207.299 113.776  0.00  0.00     0.103 A 
ATOM      3  C3   11 d         -11.260 207.611 112.934  0.00  0.00     0.013 A 
ATOM      4  C4   11 d         -10.095 208.175 113.499  0.00  0.00     0.025 A 
ATOM      5 Br1   11 d          -8.528 208.649 112.462  0.00  0.00    -0.050 Br
ATOM      6  C5   11 d         -10.035 208.407 114.880  0.00  0.00     0.042 A 
ATOM      7  C6   11 d         -11.121 208.100 115.713  0.00  0.00     0.048 A 
ATOM      8 Br2   11 d         -10.860 208.368 117.608  0.00  0.00    -0.048 Br
ATOM      9  C7   11 d         -11.374 207.342 111.553  0.00  0.00     0.017 A 
ATOM     10  C8   11 d         -12.548 206.780 111.036  0.00  0.00     0.020 A 
ATOM     11  C9   11 d         -13.609 206.489 111.898  0.00  0.00     0.117 A 
ATOM     12  N1   11 d         -13.494 206.752 113.229  0.00  0.00    -0.257 NA
ENDROOT
BRANCH   1  13
ATOM     13  O1   11 d         -13.452 207.243 115.958  0.00  0.00    -0.275 OA
BRANCH  13  14
ATOM     14  C10  11 d         -13.528 205.847 116.221  0.00  0.00     0.260 C 
ATOM     15  O2   11 d         -14.562 205.207 115.907  0.00  0.00    -0.265 OA
ATOM     16  C11  11 d         -12.327 205.108 116.715  0.00  0.00     0.126 C 
ENDBRANCH  13  14
ENDBRANCH   1  13
TORSDOF 2
ENDMDL
MODEL 10
REMARK VINA RESULT:      -5.6      3.377      5.821
REMARK  2 active torsions:
REMARK  status: ('A' for Active; 'I' for Inactive)
REMARK    1  A    between atoms: C1_1  and  O1_13 
REMARK    2  A    between atoms: O1_13  and  C10_14 
ROOT
ATOM      1  C1   11 d         -11.366 208.317 114.386  0.00  0.00     0.126 A 
ATOM      2  C2   11 d         -12.524 207.639 114.830  0.00  0.00     0.103 A 
ATOM      3  C3   11 d         -13.238 206.773 113.955  0.00  0.00     0.013 A 
ATOM      4  C4   11 d         -12.771 206.582 112.636  0.00  0.00     0.025 A 
ATOM      5 Br1   11 d         -13.654 205.434 111.348  0.00  0.00    -0.050 Br
ATOM      6  C5   11 d         -11.606 207.233 112.210  0.00  0.00     0.042 A 
ATOM      7  C6   11 d         -10.899 208.087 113.069  0.00  0.00     0.048 A 
ATOM      8 Br2   11 d          -9.251 208.831 112.388  0.00  0.00    -0.048 Br
ATOM      9  C7   11 d         -14.397 206.134 114.445  0.00  0.00     0.017 A 
ATOM     10  C8   11 d         -14.823 206.352 115.761  0.00  0.00     0.020 A 
ATOM     11  C9   11 d         -14.092 207.211 116.588  0.00  0.00     0.117 A 
ATOM     12  N1   11 d         -12.975 207.826 116.109  0.00  0.00    -0.257 NA
ENDROOT
BRANCH   1  13
ATOM     13  O1   11 d         -10.697 209.186 115.302  0.00  0.00    -0.275 OA
BRANCH  13  14
ATOM     14  C10  11 d          -9.630 208.519 115.964  0.00  0.00     0.260 C 
ATOM     15  O2   11 d          -8.445 208.714 115.594  0.00  0.00    -0.265 OA
ATOM     16  C11  11 d          -9.892 207.721 117.200  0.00  0.00     0.126 C 
ENDBRANCH  13  14
ENDBRANCH   1  13
TORSDOF 2
ENDMDL
MODEL 11
REMARK VINA RESULT:      -5.5      2.925      4.416
REMARK  2 active torsions:
REMARK  status: ('A' for Active; 'I' for Inactive)
REMARK    1  A    between atoms: C1_1  and  O1_13 
REMARK    2  A    between atoms: O1_13  and  C10_14 
ROOT
ATOM      1  C1   11 d         -13.122 207.502 114.629  0.00  0.00     0.126 A 
ATOM      2  C2   11 d         -12.198 207.805 115.654  0.00  0.00     0.103 A 
ATOM      3  C3   11 d         -12.415 207.350 116.984  0.00  0.00     0.013 A 
ATOM      4  C4   11 d         -13.559 206.574 117.273  0.00  0.00     0.025 A 
ATOM      5 Br1   11 d         -13.971 205.898 119.042  0.00  0.00    -0.050 Br
ATOM      6  C5   11 d         -14.458 206.251 116.247  0.00  0.00     0.042 A 
ATOM      7  C6   11 d         -14.246 206.698 114.934  0.00  0.00     0.048 A 
ATOM      8 Br2   11 d         -15.503 206.088 113.600  0.00  0.00    -0.048 Br
ATOM      9  C7   11 d         -11.469 207.695 117.973  0.00  0.00     0.017 A 
ATOM     10  C8   11 d         -10.347 208.465 117.641  0.00  0.00     0.020 A 
ATOM     11  C9   11 d         -10.171 208.892 116.321  0.00  0.00     0.117 A 
ATOM     12  N1   11 d         -11.089 208.557 115.372  0.00  0.00    -0.257 NA
ENDROOT
BRANCH   1  13
ATOM     13  O1   11 d         -12.861 207.998 113.314  0.00  0.00    -0.275 OA
BRANCH  13  14
ATOM     14  C10  11 d         -12.246 207.008 112.499  0.00  0.00     0.260 C 
ATOM     15  O2   11 d         -11.347 206.273 112.978  0.00  0.00    -0.265 OA
ATOM     16  C11  11 d         -12.774 206.727 111.130  0.00  0.00     0.126 C 
ENDBRANCH  13  14
ENDBRANCH   1  13
TORSDOF 2
ENDMDL
MODEL 12
REMARK VINA RESULT:      -5.2      3.940      5.794
REMARK  2 active torsions:
REMARK  status: ('A' for Active; 'I' for Inactive)
REMARK    1  A    between atoms: C1_1  and  O1_13 
REMARK    2  A    between atoms: O1_13  and  C10_14 
ROOT
ATOM      1  C1   11 d          -9.520 208.717 115.363  0.00  0.00     0.126 A 
ATOM      2  C2   11 d          -9.774 208.536 113.985  0.00  0.00     0.103 A 
ATOM      3  C3   11 d         -10.898 207.779 113.548  0.00  0.00     0.013 A 
ATOM      4  C4   11 d         -11.772 207.220 114.507  0.00  0.00     0.025 A 
ATOM      5 Br1   11 d         -13.331 206.167 114.043  0.00  0.00    -0.050 Br
ATOM      6  C5   11 d         -11.531 207.427 115.872  0.00  0.00     0.042 A 
ATOM      7  C6   11 d         -10.425 208.173 116.306  0.00  0.00     0.048 A 
ATOM      8 Br2   11 d         -10.276 208.473 118.209  0.00  0.00    -0.048 Br
ATOM      9  C7   11 d         -11.097 207.615 112.161  0.00  0.00     0.017 A 
ATOM     10  C8   11 d         -10.205 208.189 111.245  0.00  0.00     0.020 A 
ATOM     11  C9   11 d          -9.114 208.925 111.717  0.00  0.00     0.117 A 
ATOM     12  N1   11 d          -8.926 209.078 113.057  0.00  0.00    -0.257 NA
ENDROOT
BRANCH   1  13
ATOM     13  O1   11 d          -8.369 209.472 115.745  0.00  0.00    -0.275 OA
BRANCH  13  14
ATOM     14  C10  11 d          -7.251 208.628 115.991  0.00  0.00     0.260 C 
ATOM     15  O2   11 d          -7.157 208.018 117.085  0.00  0.00    -0.265 OA
ATOM     16  C11  11 d          -6.276 208.331 114.898  0.00  0.00     0.126 C 
ENDBRANCH  13  14
ENDBRANCH   1  13
TORSDOF 2
ENDMDL
MODEL 13
REMARK VINA RESULT:      -5.1      6.541      8.121
REMARK  2 active torsions:
REMARK  status: ('A' for Active; 'I' for Inactive)
REMARK    1  A    between atoms: C1_1  and  O1_13 
REMARK    2  A    between atoms: O1_13  and  C10_14 
ROOT
ATOM      1  C1   11 d          -5.910 208.848 115.459  0.00  0.00     0.126 A 
ATOM      2  C2   11 d          -6.775 208.773 114.345  0.00  0.00     0.103 A 
ATOM      3  C3   11 d          -6.261 208.514 113.043  0.00  0.00     0.013 A 
ATOM      4  C4   11 d          -4.873 208.314 112.874  0.00  0.00     0.025 A 
ATOM      5 Br1   11 d          -4.048 207.958 111.157  0.00  0.00    -0.050 Br
ATOM      6  C5   11 d          -4.023 208.360 113.987  0.00  0.00     0.042 A 
ATOM      7  C6   11 d          -4.526 208.614 115.271  0.00  0.00     0.048 A 
ATOM      8 Br2   11 d          -3.260 208.539 116.728  0.00  0.00    -0.048 Br
ATOM      9  C7   11 d          -7.166 208.466 111.962  0.00  0.00     0.017 A 
ATOM     10  C8   11 d          -8.536 208.669 112.177  0.00  0.00     0.020 A 
ATOM     11  C9   11 d          -8.999 208.921 113.472  0.00  0.00     0.117 A 
ATOM     12  N1   11 d          -8.120 208.968 114.510  0.00  0.00    -0.257 NA
ENDROOT
BRANCH   1  13
ATOM     13  O1   11 d          -6.479 209.126 116.740  0.00  0.00    -0.275 OA
BRANCH  13  14
ATOM     14  C10  11 d          -7.018 207.952 117.335  0.00  0.00     0.260 C 
ATOM     15  O2   11 d          -6.309 206.920 117.435  0.00  0.00    -0.265 OA
ATOM     16  C11  11 d          -8.360 207.989 117.990  0.00  0.00     0.126 C 
ENDBRANCH  13  14
ENDBRANCH   1  13
TORSDOF 2
ENDMDL
MODEL 14
REMARK VINA RESULT:      -5.1      5.054      6.538
REMARK  2 active torsions:
REMARK  status: ('A' for Active; 'I' for Inactive)
REMARK    1  A    between atoms: C1_1  and  O1_13 
REMARK    2  A    between atoms: O1_13  and  C10_14 
ROOT
ATOM      1  C1   11 d          -8.511 209.386 114.795  0.00  0.00     0.126 A 
ATOM      2  C2   11 d          -7.161 209.386 115.209  0.00  0.00     0.103 A 
ATOM      3  C3   11 d          -6.778 208.783 116.440  0.00  0.00     0.013 A 
ATOM      4  C4   11 d          -7.763 208.166 117.244  0.00  0.00     0.025 A 
ATOM      5 Br1   11 d          -7.374 207.315 118.941  0.00  0.00    -0.050 Br
ATOM      6  C5   11 d          -9.097 208.142 116.815  0.00  0.00     0.042 A 
ATOM      7  C6   11 d          -9.476 208.735 115.602  0.00  0.00     0.048 A 
ATOM      8 Br2   11 d         -11.326 208.533 115.081  0.00  0.00    -0.048 Br
ATOM      9  C7   11 d          -5.418 208.826 116.814  0.00  0.00     0.017 A 
ATOM     10  C8   11 d          -4.476 209.448 115.984  0.00  0.00     0.020 A 
ATOM     11  C9   11 d          -4.894 210.028 114.783  0.00  0.00     0.117 A 
ATOM     12  N1   11 d          -6.208 209.985 114.429  0.00  0.00    -0.257 NA
ENDROOT
BRANCH   1  13
ATOM     13  O1   11 d          -8.840 210.019 113.558  0.00  0.00    -0.275 OA
BRANCH  13  14
ATOM     14  C10  11 d          -8.888 209.080 112.490  0.00  0.00     0.260 C 
ATOM     15  O2   11 d          -9.979 208.840 111.917  0.00  0.00    -0.265 OA
ATOM     16  C11  11 d          -7.624 208.504 111.938  0.00  0.00     0.126 C 
ENDBRANCH  13  14
ENDBRANCH   1  13
TORSDOF 2
ENDMDL
MODEL 15
REMARK VINA RESULT:      -5.1      3.936      5.403
REMARK  2 active torsions:
REMARK  status: ('A' for Active; 'I' for Inactive)
REMARK    1  A    between atoms: C1_1  and  O1_13 
REMARK    2  A    between atoms: O1_13  and  C10_14 
ROOT
ATOM      1  C1   11 d         -13.116 205.522 116.881  0.00  0.00     0.126 A 
ATOM      2  C2   11 d         -12.646 206.415 115.892  0.00  0.00     0.103 A 
ATOM      3  C3   11 d         -13.354 206.584 114.670  0.00  0.00     0.013 A 
ATOM      4  C4   11 d         -14.548 205.859 114.456  0.00  0.00     0.025 A 
ATOM      5 Br1   11 d         -15.602 205.995 112.835  0.00  0.00    -0.050 Br
ATOM      6  C5   11 d         -15.026 204.996 115.451  0.00  0.00     0.042 A 
ATOM      7  C6   11 d         -14.330 204.829 116.657  0.00  0.00     0.048 A 
ATOM      8 Br2   11 d         -15.159 203.695 117.984  0.00  0.00    -0.048 Br
ATOM      9  C7   11 d         -12.832 207.476 113.710  0.00  0.00     0.017 A 
ATOM     10  C8   11 d         -11.645 208.176 113.965  0.00  0.00     0.020 A 
ATOM     11  C9   11 d         -10.980 207.981 115.180  0.00  0.00     0.117 A 
ATOM     12  N1   11 d         -11.489 207.117 116.101  0.00  0.00    -0.257 NA
ENDROOT
BRANCH   1  13
ATOM     13  O1   11 d         -12.356 205.381 118.082  0.00  0.00    -0.275 OA
BRANCH  13  14
ATOM     14  C10  11 d         -12.913 206.150 119.142  0.00  0.00     0.260 C 
ATOM     15  O2   11 d         -13.233 207.349 118.943  0.00  0.00    -0.265 OA
ATOM     16  C11  11 d         -13.272 205.497 120.437  0.00  0.00     0.126 C 
ENDBRANCH  13  14
ENDBRANCH   1  13
TORSDOF 2
ENDMDL
MODEL 16
REMARK VINA RESULT:      -5.0      9.834     11.995
REMARK  2 active torsions:
REMARK  status: ('A' for Active; 'I' for Inactive)
REMARK    1  A    between atoms: C1_1  and  O1_13 
REMARK    2  A    between atoms: O1_13  and  C10_14 
ROOT
ATOM      1  C1   11 d         -16.853 205.089 121.896  0.00  0.00     0.126 A 
ATOM      2  C2   11 d         -17.766 205.382 122.933  0.00  0.00     0.103 A 
ATOM      3  C3   11 d         -18.976 204.645 123.064  0.00  0.00     0.013 A 
ATOM      4  C4   11 d         -19.254 203.601 122.153  0.00  0.00     0.025 A 
ATOM      5 Br1   11 d         -20.866 202.528 122.219  0.00  0.00    -0.050 Br
ATOM      6  C5   11 d         -18.331 203.296 121.143  0.00  0.00     0.042 A 
ATOM      7  C6   11 d         -17.137 204.020 121.012  0.00  0.00     0.048 A 
ATOM      8 Br2   11 d         -15.907 203.421 119.648  0.00  0.00    -0.048 Br
ATOM      9  C7   11 d         -19.861 204.989 124.108  0.00  0.00     0.017 A 
ATOM     10  C8   11 d         -19.544 206.030 124.989  0.00  0.00     0.020 A 
ATOM     11  C9   11 d         -18.344 206.729 124.826  0.00  0.00     0.117 A 
ATOM     12  N1   11 d         -17.496 206.393 123.815  0.00  0.00    -0.257 NA
ENDROOT
BRANCH   1  13
ATOM     13  O1   11 d         -15.661 205.871 121.803  0.00  0.00    -0.275 OA
BRANCH  13  14
ATOM     14  C10  11 d         -15.746 206.826 120.752  0.00  0.00     0.260 C 
ATOM     15  O2   11 d         -16.737 207.595 120.685  0.00  0.00    -0.265 OA
ATOM     16  C11  11 d         -14.591 207.032 119.827  0.00  0.00     0.126 C 
ENDBRANCH  13  14
ENDBRANCH   1  13
TORSDOF 2
ENDMDL
MODEL 17
REMARK VINA RESULT:      -4.8     10.192     12.161
REMARK  2 active torsions:
REMARK  status: ('A' for Active; 'I' for Inactive)
REMARK    1  A    between atoms: C1_1  and  O1_13 
REMARK    2  A    between atoms: O1_13  and  C10_14 
ROOT
ATOM      1  C1   11 d         -18.007 204.405 121.289  0.00  0.00     0.126 A 
ATOM      2  C2   11 d         -19.050 203.820 122.041  0.00  0.00     0.103 A 
ATOM      3  C3   11 d         -19.297 204.229 123.381  0.00  0.00     0.013 A 
ATOM      4  C4   11 d         -18.497 205.243 123.954  0.00  0.00     0.025 A 
ATOM      5 Br1   11 d         -18.727 205.886 125.768  0.00  0.00    -0.050 Br
ATOM      6  C5   11 d         -17.483 205.841 123.194  0.00  0.00     0.042 A 
ATOM      7  C6   11 d         -17.238 205.440 121.872  0.00  0.00     0.048 A 
ATOM      8 Br2   11 d         -15.885 206.425 120.906  0.00  0.00    -0.048 Br
ATOM      9  C7   11 d         -20.340 203.600 124.093  0.00  0.00     0.017 A 
ATOM     10  C8   11 d         -21.109 202.600 123.484  0.00  0.00     0.020 A 
ATOM     11  C9   11 d         -20.834 202.227 122.165  0.00  0.00     0.117 A 
ATOM     12  N1   11 d         -19.824 202.837 121.484  0.00  0.00    -0.257 NA
ENDROOT
BRANCH   1  13
ATOM     13  O1   11 d         -17.795 203.945 119.953  0.00  0.00    -0.275 OA
BRANCH  13  14
ATOM     14  C10  11 d         -16.673 203.074 119.876  0.00  0.00     0.260 C 
ATOM     15  O2   11 d         -16.599 202.081 120.642  0.00  0.00    -0.265 OA
ATOM     16  C11  11 d         -15.669 203.235 118.782  0.00  0.00     0.126 C 
ENDBRANCH  13  14
ENDBRANCH   1  13
TORSDOF 2
ENDMDL
MODEL 18
REMARK VINA RESULT:      -4.8     10.637     12.527
REMARK  2 active torsions:
REMARK  status: ('A' for Active; 'I' for Inactive)
REMARK    1  A    between atoms: C1_1  and  O1_13 
REMARK    2  A    between atoms: O1_13  and  C10_14 
ROOT
ATOM      1  C1   11 d         -17.797 205.689 122.946  0.00  0.00     0.126 A 
ATOM      2  C2   11 d         -18.759 204.971 122.201  0.00  0.00     0.103 A 
ATOM      3  C3   11 d         -19.637 204.054 122.844  0.00  0.00     0.013 A 
ATOM      4  C4   11 d         -19.551 203.876 124.243  0.00  0.00     0.025 A 
ATOM      5 Br1   11 d         -20.684 202.657 125.235  0.00  0.00    -0.050 Br
ATOM      6  C5   11 d         -18.614 204.613 124.980  0.00  0.00     0.042 A 
ATOM      7  C6   11 d         -17.748 205.518 124.350  0.00  0.00     0.048 A 
ATOM      8 Br2   11 d         -16.584 206.546 125.500  0.00  0.00    -0.048 Br
ATOM      9  C7   11 d         -20.569 203.350 122.051  0.00  0.00     0.017 A 
ATOM     10  C8   11 d         -20.620 203.559 120.667  0.00  0.00     0.020 A 
ATOM     11  C9   11 d         -19.739 204.469 120.075  0.00  0.00     0.117 A 
ATOM     12  N1   11 d         -18.841 205.144 120.846  0.00  0.00    -0.257 NA
ENDROOT
BRANCH   1  13
ATOM     13  O1   11 d         -16.931 206.584 122.247  0.00  0.00    -0.275 OA
BRANCH  13  14
ATOM     14  C10  11 d         -15.619 206.048 122.123  0.00  0.00     0.260 C 
ATOM     15  O2   11 d         -14.621 206.788 122.309  0.00  0.00    -0.265 OA
ATOM     16  C11  11 d         -15.421 204.579 121.937  0.00  0.00     0.126 C 
ENDBRANCH  13  14
ENDBRANCH   1  13
TORSDOF 2
ENDMDL
MODEL 19
REMARK VINA RESULT:      -4.8      8.705     10.656
REMARK  2 active torsions:
REMARK  status: ('A' for Active; 'I' for Inactive)
REMARK    1  A    between atoms: C1_1  and  O1_13 
REMARK    2  A    between atoms: O1_13  and  C10_14 
ROOT
ATOM      1  C1   11 d         -16.427 203.504 120.950  0.00  0.00     0.126 A 
ATOM      2  C2   11 d         -17.798 203.775 120.744  0.00  0.00     0.103 A 
ATOM      3  C3   11 d         -18.551 204.486 121.719  0.00  0.00     0.013 A 
ATOM      4  C4   11 d         -17.911 204.936 122.896  0.00  0.00     0.025 A 
ATOM      5 Br1   11 d         -18.824 205.909 124.301  0.00  0.00    -0.050 Br
ATOM      6  C5   11 d         -16.544 204.689 123.082  0.00  0.00     0.042 A 
ATOM      7  C6   11 d         -15.799 203.989 122.122  0.00  0.00     0.048 A 
ATOM      8 Br2   11 d         -13.904 203.817 122.455  0.00  0.00    -0.048 Br
ATOM      9  C7   11 d         -19.921 204.717 121.471  0.00  0.00     0.017 A 
ATOM     10  C8   11 d         -20.513 204.254 120.289  0.00  0.00     0.020 A 
ATOM     11  C9   11 d         -19.737 203.560 119.356  0.00  0.00     0.117 A 
ATOM     12  N1   11 d         -18.416 203.339 119.603  0.00  0.00    -0.257 NA
ENDROOT
BRANCH   1  13
ATOM     13  O1   11 d         -15.723 202.773 119.944  0.00  0.00    -0.275 OA
BRANCH  13  14
ATOM     14  C10  11 d         -15.317 203.619 118.875  0.00  0.00     0.260 C 
ATOM     15  O2   11 d         -14.696 204.683 119.121  0.00  0.00    -0.265 OA
ATOM     16  C11  11 d         -15.477 203.172 117.458  0.00  0.00     0.126 C 
ENDBRANCH  13  14
ENDBRANCH   1  13
TORSDOF 2
ENDMDL
MODEL 20
REMARK VINA RESULT:      -4.8      3.826      4.756
REMARK  2 active torsions:
REMARK  status: ('A' for Active; 'I' for Inactive)
REMARK    1  A    between atoms: C1_1  and  O1_13 
REMARK    2  A    between atoms: O1_13  and  C10_14 
ROOT
ATOM      1  C1   11 d         -10.823 208.509 116.047  0.00  0.00     0.126 A 
ATOM      2  C2   11 d          -9.516 208.788 115.591  0.00  0.00     0.103 A 
ATOM      3  C3   11 d          -8.386 208.501 116.407  0.00  0.00     0.013 A 
ATOM      4  C4   11 d          -8.580 207.916 117.678  0.00  0.00     0.025 A 
ATOM      5 Br1   11 d          -7.127 207.481 118.885  0.00  0.00    -0.050 Br
ATOM      6  C5   11 d          -9.877 207.614 118.113  0.00  0.00     0.042 A 
ATOM      7  C6   11 d         -10.993 207.895 117.312  0.00  0.00     0.048 A 
ATOM      8 Br2   11 d         -12.711 207.326 117.988  0.00  0.00    -0.048 Br
ATOM      9  C7   11 d          -7.103 208.815 115.909  0.00  0.00     0.017 A 
ATOM     10  C8   11 d          -6.958 209.393 114.642  0.00  0.00     0.020 A 
ATOM     11  C9   11 d          -8.095 209.659 113.872  0.00  0.00     0.117 A 
ATOM     12  N1   11 d          -9.330 209.355 114.359  0.00  0.00    -0.257 NA
ENDROOT
BRANCH   1  13
ATOM     13  O1   11 d         -11.922 208.832 115.193  0.00  0.00    -0.275 OA
BRANCH  13  14
ATOM     14  C10  11 d         -12.290 207.725 114.378  0.00  0.00     0.260 C 
ATOM     15  O2   11 d         -11.631 206.657 114.441  0.00  0.00    -0.265 OA
ATOM     16  C11  11 d         -13.549 207.767 113.575  0.00  0.00     0.126 C 
ENDBRANCH  13  14
ENDBRANCH   1  13
TORSDOF 2
ENDMDL
