MODEL 1
REMARK VINA RESULT:      -8.7      0.000      0.000
REMARK  5 active torsions:
REMARK  status: ('A' for Active; 'I' for Inactive)
REMARK    1  A    between atoms: C1_1  and  C2_2 
REMARK    2  A    between atoms: C1_1  and  O2_23 
REMARK    3  A    between atoms: C5_5  and  N1_8 
REMARK    4  A    between atoms: N1_8  and  C8_9 
REMARK    5  A    between atoms: O2_23  and  C16_24 
ROOT
ATOM      1  C8   11 d         -13.216 205.969 114.623  0.00  0.00     0.179 A 
ATOM      2  C9   11 d         -12.357 206.485 113.633  0.00  0.00     0.222 A 
ATOM      3  N2   11 d         -11.037 206.735 113.666  0.00  0.00    -0.105 NA
ATOM      4  N3   11 d         -10.729 207.207 112.487  0.00  0.00    -0.022 NA
ATOM      5  N4   11 d         -11.790 207.259 111.724  0.00  0.00    -0.038 NA
ATOM      6  N5   11 d         -12.796 206.820 112.413  0.00  0.00    -0.188 N 
ATOM      7  C10  11 d         -14.102 206.685 112.043  0.00  0.00     0.091 A 
ATOM      8  C11  11 d         -15.005 206.183 113.020  0.00  0.00     0.088 A 
ATOM      9  N6   11 d         -14.539 205.855 114.271  0.00  0.00    -0.225 NA
ATOM     10  C12  11 d         -16.360 206.018 112.695  0.00  0.00     0.034 A 
ATOM     11  C13  11 d         -16.818 206.345 111.407  0.00  0.00     0.002 A 
ATOM     12  C14  11 d         -15.928 206.842 110.443  0.00  0.00     0.002 A 
ATOM     13  C15  11 d         -14.570 207.016 110.758  0.00  0.00     0.034 A 
ENDROOT
BRANCH   1  14
ATOM     14  N1   11 d         -12.722 205.636 115.886  0.00  0.00    -0.338 N 
ATOM     15  H5   11 d         -11.896 205.079 115.897  0.00  0.00     0.167 HD
BRANCH  14  16
ATOM     16  C5   11 d         -13.254 205.996 117.130  0.00  0.00     0.033 A 
ATOM     17  C4   11 d         -13.850 204.973 117.899  0.00  0.00     0.030 A 
ATOM     18  C3   11 d         -14.449 205.246 119.136  0.00  0.00     0.020 A 
ATOM     19  C2   11 d         -14.462 206.555 119.654  0.00  0.00     0.039 A 
ATOM     20  C7   11 d         -13.864 207.583 118.899  0.00  0.00     0.020 A 
ATOM     21  C6   11 d         -13.284 207.313 117.647  0.00  0.00     0.030 A 
BRANCH  19  22
ATOM     22  C1   11 d         -15.109 206.848 120.961  0.00  0.00     0.293 C 
ATOM     23  O1   11 d         -14.421 206.876 122.016  0.00  0.00    -0.259 OA
BRANCH  22  24
ATOM     24  O2   11 d         -16.513 207.093 121.034  0.00  0.00    -0.318 OA
BRANCH  24  25
ATOM     25  C16  11 d         -17.202 205.944 121.590  0.00  0.00     0.174 C 
ATOM     26  C17  11 d         -18.602 205.871 121.002  0.00  0.00     0.034 C 
ENDBRANCH  24  25
ENDBRANCH  22  24
ENDBRANCH  19  22
ENDBRANCH  14  16
ENDBRANCH   1  14
TORSDOF 5
ENDMDL
MODEL 2
REMARK VINA RESULT:      -8.7      1.626      2.121
REMARK  5 active torsions:
REMARK  status: ('A' for Active; 'I' for Inactive)
REMARK    1  A    between atoms: C1_1  and  C2_2 
REMARK    2  A    between atoms: C1_1  and  O2_23 
REMARK    3  A    between atoms: C5_5  and  N1_8 
REMARK    4  A    between atoms: N1_8  and  C8_9 
REMARK    5  A    between atoms: O2_23  and  C16_24 
ROOT
ATOM      1  C8   11 d         -13.582 205.763 114.966  0.00  0.00     0.179 A 
ATOM      2  C9   11 d         -12.631 206.220 114.033  0.00  0.00     0.222 A 
ATOM      3  N2   11 d         -11.303 206.388 114.150  0.00  0.00    -0.105 NA
ATOM      4  N3   11 d         -10.892 206.834 112.993  0.00  0.00    -0.022 NA
ATOM      5  N4   11 d         -11.896 206.949 112.164  0.00  0.00    -0.038 NA
ATOM      6  N5   11 d         -12.970 206.576 112.787  0.00  0.00    -0.188 N 
ATOM      7  C10  11 d         -14.255 206.520 112.334  0.00  0.00     0.091 A 
ATOM      8  C11  11 d         -15.248 206.080 113.251  0.00  0.00     0.088 A 
ATOM      9  N6   11 d         -14.884 205.729 114.530  0.00  0.00    -0.225 NA
ATOM     10  C12  11 d         -16.587 205.997 112.840  0.00  0.00     0.034 A 
ATOM     11  C13  11 d         -16.941 206.346 111.525  0.00  0.00     0.002 A 
ATOM     12  C14  11 d         -15.961 206.783 110.620  0.00  0.00     0.002 A 
ATOM     13  C15  11 d         -14.618 206.873 111.021  0.00  0.00     0.034 A 
ENDROOT
BRANCH   1  14
ATOM     14  N1   11 d         -13.192 205.406 116.258  0.00  0.00    -0.338 N 
ATOM     15  H5   11 d         -12.237 205.577 116.487  0.00  0.00     0.167 HD
BRANCH  14  16
ATOM     16  C5   11 d         -13.986 204.837 117.261  0.00  0.00     0.033 A 
ATOM     17  C4   11 d         -14.000 205.479 118.518  0.00  0.00     0.030 A 
ATOM     18  C3   11 d         -14.728 204.958 119.595  0.00  0.00     0.020 A 
ATOM     19  C2   11 d         -15.481 203.778 119.447  0.00  0.00     0.039 A 
ATOM     20  C7   11 d         -15.482 203.131 118.196  0.00  0.00     0.020 A 
ATOM     21  C6   11 d         -14.732 203.642 117.122  0.00  0.00     0.030 A 
BRANCH  19  22
ATOM     22  C1   11 d         -16.245 203.215 120.594  0.00  0.00     0.293 C 
ATOM     23  O1   11 d         -16.645 202.021 120.564  0.00  0.00    -0.259 OA
BRANCH  22  24
ATOM     24  O2   11 d         -16.537 204.023 121.734  0.00  0.00    -0.318 OA
BRANCH  24  25
ATOM     25  C16  11 d         -17.966 204.247 121.845  0.00  0.00     0.174 C 
ATOM     26  C17  11 d         -18.324 205.544 121.137  0.00  0.00     0.034 C 
ENDBRANCH  24  25
ENDBRANCH  22  24
ENDBRANCH  19  22
ENDBRANCH  14  16
ENDBRANCH   1  14
TORSDOF 5
ENDMDL
MODEL 3
REMARK VINA RESULT:      -8.6      4.925      7.479
REMARK  5 active torsions:
REMARK  status: ('A' for Active; 'I' for Inactive)
REMARK    1  A    between atoms: C1_1  and  C2_2 
REMARK    2  A    between atoms: C1_1  and  O2_23 
REMARK    3  A    between atoms: C5_5  and  N1_8 
REMARK    4  A    between atoms: N1_8  and  C8_9 
REMARK    5  A    between atoms: O2_23  and  C16_24 
ROOT
ATOM      1  C8   11 d         -12.992 207.622 114.463  0.00  0.00     0.179 A 
ATOM      2  C9   11 d         -13.714 206.636 115.163  0.00  0.00     0.222 A 
ATOM      3  N2   11 d         -13.546 206.145 116.402  0.00  0.00    -0.105 NA
ATOM      4  N3   11 d         -14.483 205.249 116.566  0.00  0.00    -0.022 NA
ATOM      5  N4   11 d         -15.225 205.161 115.493  0.00  0.00    -0.038 NA
ATOM      6  N5   11 d         -14.766 206.006 114.623  0.00  0.00    -0.188 N 
ATOM      7  C10  11 d         -15.212 206.274 113.363  0.00  0.00     0.091 A 
ATOM      8  C11  11 d         -14.499 207.252 112.617  0.00  0.00     0.088 A 
ATOM      9  N6   11 d         -13.415 207.881 113.182  0.00  0.00    -0.225 NA
ATOM     10  C12  11 d         -14.915 207.574 111.315  0.00  0.00     0.034 A 
ATOM     11  C13  11 d         -16.034 206.932 110.757  0.00  0.00     0.002 A 
ATOM     12  C14  11 d         -16.736 205.964 111.492  0.00  0.00     0.002 A 
ATOM     13  C15  11 d         -16.327 205.631 112.794  0.00  0.00     0.034 A 
ENDROOT
BRANCH   1  14
ATOM     14  N1   11 d         -11.898 208.253 115.057  0.00  0.00    -0.338 N 
ATOM     15  H5   11 d         -12.052 208.624 115.969  0.00  0.00     0.167 HD
BRANCH  14  16
ATOM     16  C5   11 d         -10.617 208.424 114.517  0.00  0.00     0.033 A 
ATOM     17  C4   11 d         -10.389 207.919 113.219  0.00  0.00     0.030 A 
ATOM     18  C3   11 d          -9.127 208.002 112.616  0.00  0.00     0.020 A 
ATOM     19  C2   11 d          -8.049 208.607 113.289  0.00  0.00     0.039 A 
ATOM     20  C7   11 d          -8.265 209.121 114.582  0.00  0.00     0.020 A 
ATOM     21  C6   11 d          -9.526 209.017 115.197  0.00  0.00     0.030 A 
BRANCH  19  22
ATOM     22  C1   11 d          -6.705 208.685 112.654  0.00  0.00     0.293 C 
ATOM     23  O1   11 d          -6.528 208.236 111.490  0.00  0.00    -0.259 OA
BRANCH  22  24
ATOM     24  O2   11 d          -5.606 209.261 113.357  0.00  0.00    -0.318 OA
BRANCH  24  25
ATOM     25  C16  11 d          -4.547 208.285 113.534  0.00  0.00     0.174 C 
ATOM     26  C17  11 d          -4.830 207.464 114.782  0.00  0.00     0.034 C 
ENDBRANCH  24  25
ENDBRANCH  22  24
ENDBRANCH  19  22
ENDBRANCH  14  16
ENDBRANCH   1  14
TORSDOF 5
ENDMDL
MODEL 4
REMARK VINA RESULT:      -8.2      5.701      8.207
REMARK  5 active torsions:
REMARK  status: ('A' for Active; 'I' for Inactive)
REMARK    1  A    between atoms: C1_1  and  C2_2 
REMARK    2  A    between atoms: C1_1  and  O2_23 
REMARK    3  A    between atoms: C5_5  and  N1_8 
REMARK    4  A    between atoms: N1_8  and  C8_9 
REMARK    5  A    between atoms: O2_23  and  C16_24 
ROOT
ATOM      1  C8   11 d         -11.453 207.895 114.051  0.00  0.00     0.179 A 
ATOM      2  C9   11 d         -12.140 207.070 114.963  0.00  0.00     0.222 A 
ATOM      3  N2   11 d         -12.026 206.956 116.297  0.00  0.00    -0.105 NA
ATOM      4  N3   11 d         -12.894 206.049 116.658  0.00  0.00    -0.022 NA
ATOM      5  N4   11 d         -13.543 205.596 115.617  0.00  0.00    -0.038 NA
ATOM      6  N5   11 d         -13.091 206.212 114.569  0.00  0.00    -0.188 N 
ATOM      7  C10  11 d         -13.461 206.078 113.263  0.00  0.00     0.091 A 
ATOM      8  C11  11 d         -12.778 206.882 112.310  0.00  0.00     0.088 A 
ATOM      9  N6   11 d         -11.797 207.748 112.730  0.00  0.00    -0.225 NA
ATOM     10  C12  11 d         -13.120 206.791 110.951  0.00  0.00     0.034 A 
ATOM     11  C13  11 d         -14.135 205.910 110.540  0.00  0.00     0.002 A 
ATOM     12  C14  11 d         -14.807 205.115 111.481  0.00  0.00     0.002 A 
ATOM     13  C15  11 d         -14.472 205.194 112.843  0.00  0.00     0.034 A 
ENDROOT
BRANCH   1  14
ATOM     14  N1   11 d         -10.464 208.773 114.499  0.00  0.00    -0.338 N 
ATOM     15  H5   11 d         -10.760 209.468 115.148  0.00  0.00     0.167 HD
BRANCH  14  16
ATOM     16  C5   11 d          -9.111 208.786 114.139  0.00  0.00     0.033 A 
ATOM     17  C4   11 d          -8.178 209.131 115.140  0.00  0.00     0.030 A 
ATOM     18  C3   11 d          -6.807 209.216 114.861  0.00  0.00     0.020 A 
ATOM     19  C2   11 d          -6.320 208.944 113.569  0.00  0.00     0.039 A 
ATOM     20  C7   11 d          -7.239 208.591 112.563  0.00  0.00     0.020 A 
ATOM     21  C6   11 d          -8.617 208.529 112.836  0.00  0.00     0.030 A 
BRANCH  19  22
ATOM     22  C1   11 d          -4.865 209.046 113.269  0.00  0.00     0.293 C 
ATOM     23  O1   11 d          -4.202 210.036 113.677  0.00  0.00    -0.259 OA
BRANCH  22  24
ATOM     24  O2   11 d          -4.211 208.029 112.512  0.00  0.00    -0.318 OA
BRANCH  24  25
ATOM     25  C16  11 d          -3.076 207.501 113.245  0.00  0.00     0.174 C 
ATOM     26  C17  11 d          -3.580 206.607 114.367  0.00  0.00     0.034 C 
ENDBRANCH  24  25
ENDBRANCH  22  24
ENDBRANCH  19  22
ENDBRANCH  14  16
ENDBRANCH   1  14
TORSDOF 5
ENDMDL
MODEL 5
REMARK VINA RESULT:      -8.2      4.749      7.689
REMARK  5 active torsions:
REMARK  status: ('A' for Active; 'I' for Inactive)
REMARK    1  A    between atoms: C1_1  and  C2_2 
REMARK    2  A    between atoms: C1_1  and  O2_23 
REMARK    3  A    between atoms: C5_5  and  N1_8 
REMARK    4  A    between atoms: N1_8  and  C8_9 
REMARK    5  A    between atoms: O2_23  and  C16_24 
ROOT
ATOM      1  C8   11 d         -10.279 208.972 115.709  0.00  0.00     0.179 A 
ATOM      2  C9   11 d          -9.640 208.370 116.810  0.00  0.00     0.222 A 
ATOM      3  N2   11 d         -10.149 207.864 117.946  0.00  0.00    -0.105 NA
ATOM      4  N3   11 d          -9.129 207.426 118.635  0.00  0.00    -0.022 NA
ATOM      5  N4   11 d          -8.014 207.632 117.984  0.00  0.00    -0.038 NA
ATOM      6  N5   11 d          -8.311 208.211 116.862  0.00  0.00    -0.188 N 
ATOM      7  C10  11 d          -7.485 208.617 115.856  0.00  0.00     0.091 A 
ATOM      8  C11  11 d          -8.091 209.245 114.733  0.00  0.00     0.088 A 
ATOM      9  N6   11 d          -9.455 209.410 114.701  0.00  0.00    -0.225 NA
ATOM     10  C12  11 d          -7.291 209.679 113.664  0.00  0.00     0.034 A 
ATOM     11  C13  11 d          -5.899 209.489 113.706  0.00  0.00     0.002 A 
ATOM     12  C14  11 d          -5.301 208.872 114.815  0.00  0.00     0.002 A 
ATOM     13  C15  11 d          -6.090 208.436 115.893  0.00  0.00     0.034 A 
ENDROOT
BRANCH   1  14
ATOM     14  N1   11 d         -11.666 209.126 115.693  0.00  0.00    -0.338 N 
ATOM     15  H5   11 d         -12.031 209.849 116.273  0.00  0.00     0.167 HD
BRANCH  14  16
ATOM     16  C5   11 d         -12.597 208.381 114.957  0.00  0.00     0.033 A 
ATOM     17  C4   11 d         -13.964 208.621 115.213  0.00  0.00     0.030 A 
ATOM     18  C3   11 d         -14.966 207.891 114.560  0.00  0.00     0.020 A 
ATOM     19  C2   11 d         -14.634 206.902 113.615  0.00  0.00     0.039 A 
ATOM     20  C7   11 d         -13.273 206.659 113.345  0.00  0.00     0.020 A 
ATOM     21  C6   11 d         -12.267 207.374 114.018  0.00  0.00     0.030 A 
BRANCH  19  22
ATOM     22  C1   11 d         -15.697 206.118 112.929  0.00  0.00     0.293 C 
ATOM     23  O1   11 d         -16.768 205.842 113.532  0.00  0.00    -0.259 OA
BRANCH  22  24
ATOM     24  O2   11 d         -15.512 205.668 111.588  0.00  0.00    -0.318 OA
BRANCH  24  25
ATOM     25  C16  11 d         -15.975 206.670 110.647  0.00  0.00     0.174 C 
ATOM     26  C17  11 d         -14.781 207.236 109.896  0.00  0.00     0.034 C 
ENDBRANCH  24  25
ENDBRANCH  22  24
ENDBRANCH  19  22
ENDBRANCH  14  16
ENDBRANCH   1  14
TORSDOF 5
ENDMDL
MODEL 6
REMARK VINA RESULT:      -8.1      5.128      7.278
REMARK  5 active torsions:
REMARK  status: ('A' for Active; 'I' for Inactive)
REMARK    1  A    between atoms: C1_1  and  C2_2 
REMARK    2  A    between atoms: C1_1  and  O2_23 
REMARK    3  A    between atoms: C5_5  and  N1_8 
REMARK    4  A    between atoms: N1_8  and  C8_9 
REMARK    5  A    between atoms: O2_23  and  C16_24 
ROOT
ATOM      1  C8   11 d         -11.763 207.159 112.105  0.00  0.00     0.179 A 
ATOM      2  C9   11 d         -12.056 206.512 113.320  0.00  0.00     0.222 A 
ATOM      3  N2   11 d         -11.262 206.197 114.357  0.00  0.00    -0.105 NA
ATOM      4  N3   11 d         -12.029 205.604 115.233  0.00  0.00    -0.022 NA
ATOM      5  N4   11 d         -13.258 205.537 114.794  0.00  0.00    -0.038 NA
ATOM      6  N5   11 d         -13.291 206.089 113.622  0.00  0.00    -0.188 N 
ATOM      7  C10  11 d         -14.349 206.257 112.777  0.00  0.00     0.091 A 
ATOM      8  C11  11 d         -14.090 206.893 111.532  0.00  0.00     0.088 A 
ATOM      9  N6   11 d         -12.814 207.310 111.234  0.00  0.00    -0.225 NA
ATOM     10  C12  11 d         -15.141 207.098 110.624  0.00  0.00     0.034 A 
ATOM     11  C13  11 d         -16.442 206.678 110.950  0.00  0.00     0.002 A 
ATOM     12  C14  11 d         -16.697 206.049 112.178  0.00  0.00     0.002 A 
ATOM     13  C15  11 d         -15.654 205.835 113.093  0.00  0.00     0.034 A 
ENDROOT
BRANCH   1  14
ATOM     14  N1   11 d         -10.462 207.581 111.824  0.00  0.00    -0.338 N 
ATOM     15  H5   11 d         -10.134 207.394 110.902  0.00  0.00     0.167 HD
BRANCH  14  16
ATOM     16  C5   11 d          -9.573 208.231 112.688  0.00  0.00     0.033 A 
ATOM     17  C4   11 d          -8.211 208.255 112.317  0.00  0.00     0.030 A 
ATOM     18  C3   11 d          -7.241 208.842 113.141  0.00  0.00     0.020 A 
ATOM     19  C2   11 d          -7.604 209.439 114.363  0.00  0.00     0.039 A 
ATOM     20  C7   11 d          -8.961 209.429 114.741  0.00  0.00     0.020 A 
ATOM     21  C6   11 d          -9.931 208.818 113.926  0.00  0.00     0.030 A 
BRANCH  19  22
ATOM     22  C1   11 d          -6.574 210.052 115.245  0.00  0.00     0.293 C 
ATOM     23  O1   11 d          -6.288 211.274 115.130  0.00  0.00    -0.259 OA
BRANCH  22  24
ATOM     24  O2   11 d          -5.897 209.264 116.222  0.00  0.00    -0.318 OA
BRANCH  24  25
ATOM     25  C16  11 d          -4.461 209.433 116.105  0.00  0.00     0.174 C 
ATOM     26  C17  11 d          -3.955 208.603 114.936  0.00  0.00     0.034 C 
ENDBRANCH  24  25
ENDBRANCH  22  24
ENDBRANCH  19  22
ENDBRANCH  14  16
ENDBRANCH   1  14
TORSDOF 5
ENDMDL
MODEL 7
REMARK VINA RESULT:      -8.1      4.749      8.308
REMARK  5 active torsions:
REMARK  status: ('A' for Active; 'I' for Inactive)
REMARK    1  A    between atoms: C1_1  and  C2_2 
REMARK    2  A    between atoms: C1_1  and  O2_23 
REMARK    3  A    between atoms: C5_5  and  N1_8 
REMARK    4  A    between atoms: N1_8  and  C8_9 
REMARK    5  A    between atoms: O2_23  and  C16_24 
ROOT
ATOM      1  C8   11 d         -10.695 207.990 117.196  0.00  0.00     0.179 A 
ATOM      2  C9   11 d         -11.145 207.214 118.282  0.00  0.00     0.222 A 
ATOM      3  N2   11 d         -12.391 206.900 118.676  0.00  0.00    -0.105 NA
ATOM      4  N3   11 d         -12.256 206.156 119.741  0.00  0.00    -0.022 NA
ATOM      5  N4   11 d         -10.991 205.991 120.028  0.00  0.00    -0.038 NA
ATOM      6  N5   11 d         -10.297 206.635 119.142  0.00  0.00    -0.188 N 
ATOM      7  C10  11 d          -8.943 206.752 119.027  0.00  0.00     0.091 A 
ATOM      8  C11  11 d          -8.450 207.542 117.952  0.00  0.00     0.088 A 
ATOM      9  N6   11 d          -9.335 208.139 117.086  0.00  0.00    -0.225 NA
ATOM     10  C12  11 d          -7.065 207.694 117.779  0.00  0.00     0.034 A 
ATOM     11  C13  11 d          -6.174 207.066 118.665  0.00  0.00     0.002 A 
ATOM     12  C14  11 d          -6.661 206.288 119.728  0.00  0.00     0.002 A 
ATOM     13  C15  11 d          -8.044 206.131 119.913  0.00  0.00     0.034 A 
ENDROOT
BRANCH   1  14
ATOM     14  N1   11 d         -11.610 208.583 116.324  0.00  0.00    -0.338 N 
ATOM     15  H5   11 d         -11.986 209.459 116.616  0.00  0.00     0.167 HD
BRANCH  14  16
ATOM     16  C5   11 d         -12.056 208.088 115.092  0.00  0.00     0.033 A 
ATOM     17  C4   11 d         -13.365 208.432 114.692  0.00  0.00     0.030 A 
ATOM     18  C3   11 d         -13.914 207.946 113.499  0.00  0.00     0.020 A 
ATOM     19  C2   11 d         -13.164 207.105 112.654  0.00  0.00     0.039 A 
ATOM     20  C7   11 d         -11.854 206.760 113.038  0.00  0.00     0.020 A 
ATOM     21  C6   11 d         -11.311 207.229 114.248  0.00  0.00     0.030 A 
BRANCH  19  22
ATOM     22  C1   11 d         -13.751 206.578 111.392  0.00  0.00     0.293 C 
ATOM     23  O1   11 d         -13.324 206.984 110.278  0.00  0.00    -0.259 OA
BRANCH  22  24
ATOM     24  O2   11 d         -14.802 205.615 111.430  0.00  0.00    -0.318 OA
BRANCH  24  25
ATOM     25  C16  11 d         -16.053 206.210 111.001  0.00  0.00     0.174 C 
ATOM     26  C17  11 d         -17.121 205.936 112.048  0.00  0.00     0.034 C 
ENDBRANCH  24  25
ENDBRANCH  22  24
ENDBRANCH  19  22
ENDBRANCH  14  16
ENDBRANCH   1  14
TORSDOF 5
ENDMDL
MODEL 8
REMARK VINA RESULT:      -8.0      4.900      8.067
REMARK  5 active torsions:
REMARK  status: ('A' for Active; 'I' for Inactive)
REMARK    1  A    between atoms: C1_1  and  C2_2 
REMARK    2  A    between atoms: C1_1  and  O2_23 
REMARK    3  A    between atoms: C5_5  and  N1_8 
REMARK    4  A    between atoms: N1_8  and  C8_9 
REMARK    5  A    between atoms: O2_23  and  C16_24 
ROOT
ATOM      1  C8   11 d         -10.022 208.699 115.943  0.00  0.00     0.179 A 
ATOM      2  C9   11 d          -8.828 209.164 115.358  0.00  0.00     0.222 A 
ATOM      3  N2   11 d          -8.624 209.888 114.245  0.00  0.00    -0.105 NA
ATOM      4  N3   11 d          -7.331 210.048 114.149  0.00  0.00    -0.022 NA
ATOM      5  N4   11 d          -6.723 209.463 115.147  0.00  0.00    -0.038 NA
ATOM      6  N5   11 d          -7.627 208.915 115.897  0.00  0.00    -0.188 N 
ATOM      7  C10  11 d          -7.476 208.199 117.048  0.00  0.00     0.091 A 
ATOM      8  C11  11 d          -8.657 207.699 117.661  0.00  0.00     0.088 A 
ATOM      9  N6   11 d          -9.880 207.953 117.088  0.00  0.00    -0.225 NA
ATOM     10  C12  11 d          -8.563 206.960 118.851  0.00  0.00     0.034 A 
ATOM     11  C13  11 d          -7.306 206.720 119.432  0.00  0.00     0.002 A 
ATOM     12  C14  11 d          -6.140 207.212 118.825  0.00  0.00     0.002 A 
ATOM     13  C15  11 d          -6.220 207.950 117.633  0.00  0.00     0.034 A 
ENDROOT
BRANCH   1  14
ATOM     14  N1   11 d         -11.255 208.974 115.349  0.00  0.00    -0.338 N 
ATOM     15  H5   11 d         -11.650 209.864 115.558  0.00  0.00     0.167 HD
BRANCH  14  16
ATOM     16  C5   11 d         -11.994 208.142 114.498  0.00  0.00     0.033 A 
ATOM     17  C4   11 d         -11.347 207.665 113.338  0.00  0.00     0.030 A 
ATOM     18  C3   11 d         -12.021 206.866 112.405  0.00  0.00     0.020 A 
ATOM     19  C2   11 d         -13.366 206.504 112.608  0.00  0.00     0.039 A 
ATOM     20  C7   11 d         -14.020 206.967 113.766  0.00  0.00     0.020 A 
ATOM     21  C6   11 d         -13.351 207.789 114.690  0.00  0.00     0.030 A 
BRANCH  19  22
ATOM     22  C1   11 d         -14.086 205.665 111.611  0.00  0.00     0.293 C 
ATOM     23  O1   11 d         -14.434 204.491 111.906  0.00  0.00    -0.259 OA
BRANCH  22  24
ATOM     24  O2   11 d         -14.383 206.179 110.314  0.00  0.00    -0.318 OA
BRANCH  24  25
ATOM     25  C16  11 d         -15.407 207.204 110.395  0.00  0.00     0.174 C 
ATOM     26  C17  11 d         -16.641 206.623 111.067  0.00  0.00     0.034 C 
ENDBRANCH  24  25
ENDBRANCH  22  24
ENDBRANCH  19  22
ENDBRANCH  14  16
ENDBRANCH   1  14
TORSDOF 5
ENDMDL
MODEL 9
REMARK VINA RESULT:      -8.0      4.277      7.654
REMARK  5 active torsions:
REMARK  status: ('A' for Active; 'I' for Inactive)
REMARK    1  A    between atoms: C1_1  and  C2_2 
REMARK    2  A    between atoms: C1_1  and  O2_23 
REMARK    3  A    between atoms: C5_5  and  N1_8 
REMARK    4  A    between atoms: N1_8  and  C8_9 
REMARK    5  A    between atoms: O2_23  and  C16_24 
ROOT
ATOM      1  C8   11 d         -11.875 207.793 117.194  0.00  0.00     0.179 A 
ATOM      2  C9   11 d         -11.404 207.106 118.330  0.00  0.00     0.222 A 
ATOM      3  N2   11 d         -12.072 206.461 119.301  0.00  0.00    -0.105 NA
ATOM      4  N3   11 d         -11.164 205.997 120.118  0.00  0.00    -0.022 NA
ATOM      5  N4   11 d          -9.967 206.320 119.703  0.00  0.00    -0.038 NA
ATOM      6  N5   11 d         -10.098 207.001 118.607  0.00  0.00    -0.188 N 
ATOM      7  C10  11 d          -9.134 207.547 117.811  0.00  0.00     0.091 A 
ATOM      8  C11  11 d          -9.571 208.263 116.663  0.00  0.00     0.088 A 
ATOM      9  N6   11 d         -10.915 208.371 116.400  0.00  0.00    -0.225 NA
ATOM     10  C12  11 d          -8.624 208.843 115.804  0.00  0.00     0.034 A 
ATOM     11  C13  11 d          -7.252 208.711 116.079  0.00  0.00     0.002 A 
ATOM     12  C14  11 d          -6.822 208.006 117.214  0.00  0.00     0.002 A 
ATOM     13  C15  11 d          -7.759 207.425 118.083  0.00  0.00     0.034 A 
ENDROOT
BRANCH   1  14
ATOM     14  N1   11 d         -13.245 207.887 116.942  0.00  0.00    -0.338 N 
ATOM     15  H5   11 d         -13.777 208.400 117.609  0.00  0.00     0.167 HD
BRANCH  14  16
ATOM     16  C5   11 d         -13.951 207.341 115.862  0.00  0.00     0.033 A 
ATOM     17  C4   11 d         -14.270 208.207 114.794  0.00  0.00     0.030 A 
ATOM     18  C3   11 d         -15.014 207.763 113.693  0.00  0.00     0.020 A 
ATOM     19  C2   11 d         -15.454 206.428 113.616  0.00  0.00     0.039 A 
ATOM     20  C7   11 d         -15.136 205.552 114.672  0.00  0.00     0.020 A 
ATOM     21  C6   11 d         -14.410 206.004 115.788  0.00  0.00     0.030 A 
BRANCH  19  22
ATOM     22  C1   11 d         -16.255 205.958 112.452  0.00  0.00     0.293 C 
ATOM     23  O1   11 d         -17.473 206.265 112.357  0.00  0.00    -0.259 OA
BRANCH  22  24
ATOM     24  O2   11 d         -15.654 205.153 111.440  0.00  0.00    -0.318 OA
BRANCH  24  25
ATOM     25  C16  11 d         -14.606 205.889 110.760  0.00  0.00     0.174 C 
ATOM     26  C17  11 d         -15.228 207.037 109.981  0.00  0.00     0.034 C 
ENDBRANCH  24  25
ENDBRANCH  22  24
ENDBRANCH  19  22
ENDBRANCH  14  16
ENDBRANCH   1  14
TORSDOF 5
ENDMDL
MODEL 10
REMARK VINA RESULT:      -8.0      4.201      8.253
REMARK  5 active torsions:
REMARK  status: ('A' for Active; 'I' for Inactive)
REMARK    1  A    between atoms: C1_1  and  C2_2 
REMARK    2  A    between atoms: C1_1  and  O2_23 
REMARK    3  A    between atoms: C5_5  and  N1_8 
REMARK    4  A    between atoms: N1_8  and  C8_9 
REMARK    5  A    between atoms: O2_23  and  C16_24 
ROOT
ATOM      1  C8   11 d         -15.269 204.324 119.519  0.00  0.00     0.179 A 
ATOM      2  C9   11 d         -15.093 205.347 120.472  0.00  0.00     0.222 A 
ATOM      3  N2   11 d         -14.061 206.182 120.678  0.00  0.00    -0.105 NA
ATOM      4  N3   11 d         -14.404 206.938 121.687  0.00  0.00    -0.022 NA
ATOM      5  N4   11 d         -15.596 206.616 122.117  0.00  0.00    -0.038 NA
ATOM      6  N5   11 d         -16.032 205.641 121.382  0.00  0.00    -0.188 N 
ATOM      7  C10  11 d         -17.220 204.975 121.449  0.00  0.00     0.091 A 
ATOM      8  C11  11 d         -17.429 203.925 120.514  0.00  0.00     0.088 A 
ATOM      9  N6   11 d         -16.451 203.629 119.594  0.00  0.00    -0.225 NA
ATOM     10  C12  11 d         -18.636 203.208 120.531  0.00  0.00     0.034 A 
ATOM     11  C13  11 d         -19.632 203.532 121.468  0.00  0.00     0.002 A 
ATOM     12  C14  11 d         -19.425 204.568 122.392  0.00  0.00     0.002 A 
ATOM     13  C15  11 d         -18.220 205.290 122.388  0.00  0.00     0.034 A 
ENDROOT
BRANCH   1  14
ATOM     14  N1   11 d         -14.266 204.043 118.590  0.00  0.00    -0.338 N 
ATOM     15  H5   11 d         -13.623 203.327 118.847  0.00  0.00     0.167 HD
BRANCH  14  16
ATOM     16  C5   11 d         -14.062 204.653 117.346  0.00  0.00     0.033 A 
ATOM     17  C4   11 d         -12.797 205.232 117.108  0.00  0.00     0.030 A 
ATOM     18  C3   11 d         -12.517 205.905 115.911  0.00  0.00     0.020 A 
ATOM     19  C2   11 d         -13.493 206.010 114.902  0.00  0.00     0.039 A 
ATOM     20  C7   11 d         -14.757 205.429 115.124  0.00  0.00     0.020 A 
ATOM     21  C6   11 d         -15.046 204.775 116.335  0.00  0.00     0.030 A 
BRANCH  19  22
ATOM     22  C1   11 d         -13.200 206.734 113.635  0.00  0.00     0.293 C 
ATOM     23  O1   11 d         -13.517 207.947 113.512  0.00  0.00    -0.259 OA
BRANCH  22  24
ATOM     24  O2   11 d         -12.565 206.063 112.548  0.00  0.00    -0.318 OA
BRANCH  24  25
ATOM     25  C16  11 d         -13.376 206.158 111.349  0.00  0.00     0.174 C 
ATOM     26  C17  11 d         -14.465 205.098 111.398  0.00  0.00     0.034 C 
ENDBRANCH  24  25
ENDBRANCH  22  24
ENDBRANCH  19  22
ENDBRANCH  14  16
ENDBRANCH   1  14
TORSDOF 5
ENDMDL
MODEL 11
REMARK VINA RESULT:      -7.9      2.959      4.592
REMARK  5 active torsions:
REMARK  status: ('A' for Active; 'I' for Inactive)
REMARK    1  A    between atoms: C1_1  and  C2_2 
REMARK    2  A    between atoms: C1_1  and  O2_23 
REMARK    3  A    between atoms: C5_5  and  N1_8 
REMARK    4  A    between atoms: N1_8  and  C8_9 
REMARK    5  A    between atoms: O2_23  and  C16_24 
ROOT
ATOM      1  C8   11 d         -11.916 208.399 114.934  0.00  0.00     0.179 A 
ATOM      2  C9   11 d         -12.037 207.860 113.639  0.00  0.00     0.222 A 
ATOM      3  N2   11 d         -13.091 207.306 113.017  0.00  0.00    -0.105 NA
ATOM      4  N3   11 d         -12.672 206.968 111.826  0.00  0.00    -0.022 NA
ATOM      5  N4   11 d         -11.413 207.286 111.677  0.00  0.00    -0.038 NA
ATOM      6  N5   11 d         -11.009 207.834 112.780  0.00  0.00    -0.188 N 
ATOM      7  C10  11 d          -9.777 208.326 113.098  0.00  0.00     0.091 A 
ATOM      8  C11  11 d          -9.611 208.864 114.403  0.00  0.00     0.088 A 
ATOM      9  N6   11 d         -10.673 208.873 115.275  0.00  0.00    -0.225 NA
ATOM     10  C12  11 d          -8.367 209.391 114.785  0.00  0.00     0.034 A 
ATOM     11  C13  11 d          -7.294 209.388 113.876  0.00  0.00     0.002 A 
ATOM     12  C14  11 d          -7.458 208.854 112.589  0.00  0.00     0.002 A 
ATOM     13  C15  11 d          -8.697 208.321 112.196  0.00  0.00     0.034 A 
ENDROOT
BRANCH   1  14
ATOM     14  N1   11 d         -13.009 208.404 115.803  0.00  0.00    -0.338 N 
ATOM     15  H5   11 d         -13.534 209.250 115.837  0.00  0.00     0.167 HD
BRANCH  14  16
ATOM     16  C5   11 d         -13.446 207.359 116.627  0.00  0.00     0.033 A 
ATOM     17  C4   11 d         -13.595 207.639 118.002  0.00  0.00     0.030 A 
ATOM     18  C3   11 d         -13.983 206.645 118.911  0.00  0.00     0.020 A 
ATOM     19  C2   11 d         -14.248 205.335 118.470  0.00  0.00     0.039 A 
ATOM     20  C7   11 d         -14.110 205.044 117.099  0.00  0.00     0.020 A 
ATOM     21  C6   11 d         -13.698 206.036 116.191  0.00  0.00     0.030 A 
BRANCH  19  22
ATOM     22  C1   11 d         -14.648 204.275 119.436  0.00  0.00     0.293 C 
ATOM     23  O1   11 d         -14.505 204.460 120.674  0.00  0.00    -0.259 OA
BRANCH  22  24
ATOM     24  O2   11 d         -15.190 203.040 118.971  0.00  0.00    -0.318 OA
BRANCH  24  25
ATOM     25  C16  11 d         -16.640 203.078 119.000  0.00  0.00     0.174 C 
ATOM     26  C17  11 d         -17.175 202.758 117.614  0.00  0.00     0.034 C 
ENDBRANCH  24  25
ENDBRANCH  22  24
ENDBRANCH  19  22
ENDBRANCH  14  16
ENDBRANCH   1  14
TORSDOF 5
ENDMDL
MODEL 12
REMARK VINA RESULT:      -7.9      5.042      6.984
REMARK  5 active torsions:
REMARK  status: ('A' for Active; 'I' for Inactive)
REMARK    1  A    between atoms: C1_1  and  C2_2 
REMARK    2  A    between atoms: C1_1  and  O2_23 
REMARK    3  A    between atoms: C5_5  and  N1_8 
REMARK    4  A    between atoms: N1_8  and  C8_9 
REMARK    5  A    between atoms: O2_23  and  C16_24 
ROOT
ATOM      1  C8   11 d         -12.373 207.919 114.779  0.00  0.00     0.179 A 
ATOM      2  C9   11 d         -13.149 206.954 115.451  0.00  0.00     0.222 A 
ATOM      3  N2   11 d         -13.302 206.717 116.765  0.00  0.00    -0.105 NA
ATOM      4  N3   11 d         -14.131 205.711 116.856  0.00  0.00    -0.022 NA
ATOM      5  N4   11 d         -14.501 205.313 115.667  0.00  0.00    -0.038 NA
ATOM      6  N5   11 d         -13.906 206.066 114.795  0.00  0.00    -0.188 N 
ATOM      7  C10  11 d         -13.982 206.033 113.433  0.00  0.00     0.091 A 
ATOM      8  C11  11 d         -13.201 206.981 112.717  0.00  0.00     0.088 A 
ATOM      9  N6   11 d         -12.420 207.878 113.407  0.00  0.00    -0.225 NA
ATOM     10  C12  11 d         -13.243 206.999 111.314  0.00  0.00     0.034 A 
ATOM     11  C13  11 d         -14.058 206.085 110.624  0.00  0.00     0.002 A 
ATOM     12  C14  11 d         -14.827 205.148 111.331  0.00  0.00     0.002 A 
ATOM     13  C15  11 d         -14.791 205.117 112.735  0.00  0.00     0.034 A 
ENDROOT
BRANCH   1  14
ATOM     14  N1   11 d         -11.592 208.824 115.498  0.00  0.00    -0.338 N 
ATOM     15  H5   11 d         -12.085 209.563 115.948  0.00  0.00     0.167 HD
BRANCH  14  16
ATOM     16  C5   11 d         -10.200 208.811 115.655  0.00  0.00     0.033 A 
ATOM     17  C4   11 d          -9.422 209.290 114.579  0.00  0.00     0.030 A 
ATOM     18  C3   11 d          -8.022 209.272 114.626  0.00  0.00     0.020 A 
ATOM     19  C2   11 d          -7.349 208.784 115.762  0.00  0.00     0.039 A 
ATOM     20  C7   11 d          -8.113 208.310 116.846  0.00  0.00     0.020 A 
ATOM     21  C6   11 d          -9.519 208.305 116.788  0.00  0.00     0.030 A 
BRANCH  19  22
ATOM     22  C1   11 d          -5.862 208.753 115.809  0.00  0.00     0.293 C 
ATOM     23  O1   11 d          -5.243 207.685 115.557  0.00  0.00    -0.259 OA
BRANCH  22  24
ATOM     24  O2   11 d          -5.125 209.927 116.144  0.00  0.00    -0.318 OA
BRANCH  24  25
ATOM     25  C16  11 d          -4.618 209.840 117.501  0.00  0.00     0.174 C 
ATOM     26  C17  11 d          -5.453 210.737 118.402  0.00  0.00     0.034 C 
ENDBRANCH  24  25
ENDBRANCH  22  24
ENDBRANCH  19  22
ENDBRANCH  14  16
ENDBRANCH   1  14
TORSDOF 5
ENDMDL
MODEL 13
REMARK VINA RESULT:      -7.8      2.848      3.542
REMARK  5 active torsions:
REMARK  status: ('A' for Active; 'I' for Inactive)
REMARK    1  A    between atoms: C1_1  and  C2_2 
REMARK    2  A    between atoms: C1_1  and  O2_23 
REMARK    3  A    between atoms: C5_5  and  N1_8 
REMARK    4  A    between atoms: N1_8  and  C8_9 
REMARK    5  A    between atoms: O2_23  and  C16_24 
ROOT
ATOM      1  C8   11 d         -13.017 207.941 114.813  0.00  0.00     0.179 A 
ATOM      2  C9   11 d         -12.045 207.837 113.799  0.00  0.00     0.222 A 
ATOM      3  N2   11 d         -10.739 208.152 113.804  0.00  0.00    -0.105 NA
ATOM      4  N3   11 d         -10.292 207.862 112.611  0.00  0.00    -0.022 NA
ATOM      5  N4   11 d         -11.253 207.382 111.866  0.00  0.00    -0.038 NA
ATOM      6  N5   11 d         -12.335 207.361 112.581  0.00  0.00    -0.188 N 
ATOM      7  C10  11 d         -13.587 206.943 112.237  0.00  0.00     0.091 A 
ATOM      8  C11  11 d         -14.600 207.047 113.229  0.00  0.00     0.088 A 
ATOM      9  N6   11 d         -14.288 207.549 114.470  0.00  0.00    -0.225 NA
ATOM     10  C12  11 d         -15.907 206.627 112.935  0.00  0.00     0.034 A 
ATOM     11  C13  11 d         -16.207 206.103 111.666  0.00  0.00     0.002 A 
ATOM     12  C14  11 d         -15.207 206.002 110.686  0.00  0.00     0.002 A 
ATOM     13  C15  11 d         -13.897 206.422 110.967  0.00  0.00     0.034 A 
ENDROOT
BRANCH   1  14
ATOM     14  N1   11 d         -12.678 208.448 116.068  0.00  0.00    -0.338 N 
ATOM     15  H5   11 d         -12.970 209.382 116.254  0.00  0.00     0.167 HD
BRANCH  14  16
ATOM     16  C5   11 d         -11.977 207.794 117.089  0.00  0.00     0.033 A 
ATOM     17  C4   11 d         -12.606 206.690 117.703  0.00  0.00     0.030 A 
ATOM     18  C3   11 d         -12.002 206.003 118.764  0.00  0.00     0.020 A 
ATOM     19  C2   11 d         -10.736 206.391 119.240  0.00  0.00     0.039 A 
ATOM     20  C7   11 d         -10.093 207.486 118.632  0.00  0.00     0.020 A 
ATOM     21  C6   11 d         -10.710 208.191 117.583  0.00  0.00     0.030 A 
BRANCH  19  22
ATOM     22  C1   11 d         -10.098 205.669 120.376  0.00  0.00     0.293 C 
ATOM     23  O1   11 d          -8.939 205.190 120.250  0.00  0.00    -0.259 OA
BRANCH  22  24
ATOM     24  O2   11 d         -10.792 205.508 121.611  0.00  0.00    -0.318 OA
BRANCH  24  25
ATOM     25  C16  11 d          -9.872 205.605 122.728  0.00  0.00     0.174 C 
ATOM     26  C17  11 d          -9.987 204.351 123.579  0.00  0.00     0.034 C 
ENDBRANCH  24  25
ENDBRANCH  22  24
ENDBRANCH  19  22
ENDBRANCH  14  16
ENDBRANCH   1  14
TORSDOF 5
ENDMDL
MODEL 14
REMARK VINA RESULT:      -7.8      2.580      3.589
REMARK  5 active torsions:
REMARK  status: ('A' for Active; 'I' for Inactive)
REMARK    1  A    between atoms: C1_1  and  C2_2 
REMARK    2  A    between atoms: C1_1  and  O2_23 
REMARK    3  A    between atoms: C5_5  and  N1_8 
REMARK    4  A    between atoms: N1_8  and  C8_9 
REMARK    5  A    between atoms: O2_23  and  C16_24 
ROOT
ATOM      1  C8   11 d         -11.062 208.025 114.964  0.00  0.00     0.179 A 
ATOM      2  C9   11 d          -9.935 208.711 114.469  0.00  0.00     0.222 A 
ATOM      3  N2   11 d          -8.965 209.379 115.116  0.00  0.00    -0.105 NA
ATOM      4  N3   11 d          -8.158 209.829 114.192  0.00  0.00    -0.022 NA
ATOM      5  N4   11 d          -8.578 209.473 113.005  0.00  0.00    -0.038 NA
ATOM      6  N5   11 d          -9.667 208.787 113.159  0.00  0.00    -0.188 N 
ATOM      7  C10  11 d         -10.461 208.207 112.214  0.00  0.00     0.091 A 
ATOM      8  C11  11 d         -11.617 207.519 112.672  0.00  0.00     0.088 A 
ATOM      9  N6   11 d         -11.884 207.460 114.020  0.00  0.00    -0.225 NA
ATOM     10  C12  11 d         -12.469 206.896 111.746  0.00  0.00     0.034 A 
ATOM     11  C13  11 d         -12.175 206.953 110.373  0.00  0.00     0.002 A 
ATOM     12  C14  11 d         -11.035 207.635 109.920  0.00  0.00     0.002 A 
ATOM     13  C15  11 d         -10.176 208.265 110.837  0.00  0.00     0.034 A 
ENDROOT
BRANCH   1  14
ATOM     14  N1   11 d         -11.311 207.972 116.336  0.00  0.00    -0.338 N 
ATOM     15  H5   11 d         -10.822 208.637 116.894  0.00  0.00     0.167 HD
BRANCH  14  16
ATOM     16  C5   11 d         -12.168 207.094 117.012  0.00  0.00     0.033 A 
ATOM     17  C4   11 d         -12.962 207.634 118.046  0.00  0.00     0.030 A 
ATOM     18  C3   11 d         -13.814 206.824 118.809  0.00  0.00     0.020 A 
ATOM     19  C2   11 d         -13.910 205.443 118.553  0.00  0.00     0.039 A 
ATOM     20  C7   11 d         -13.127 204.893 117.519  0.00  0.00     0.020 A 
ATOM     21  C6   11 d         -12.255 205.702 116.770  0.00  0.00     0.030 A 
BRANCH  19  22
ATOM     22  C1   11 d         -14.805 204.579 119.371  0.00  0.00     0.293 C 
ATOM     23  O1   11 d         -15.280 203.519 118.883  0.00  0.00    -0.259 OA
BRANCH  22  24
ATOM     24  O2   11 d         -15.137 204.944 120.709  0.00  0.00    -0.318 OA
BRANCH  24  25
ATOM     25  C16  11 d         -14.396 204.134 121.657  0.00  0.00     0.174 C 
ATOM     26  C17  11 d         -13.203 204.929 122.165  0.00  0.00     0.034 C 
ENDBRANCH  24  25
ENDBRANCH  22  24
ENDBRANCH  19  22
ENDBRANCH  14  16
ENDBRANCH   1  14
TORSDOF 5
ENDMDL
MODEL 15
REMARK VINA RESULT:      -7.6      3.844      4.876
REMARK  5 active torsions:
REMARK  status: ('A' for Active; 'I' for Inactive)
REMARK    1  A    between atoms: C1_1  and  C2_2 
REMARK    2  A    between atoms: C1_1  and  O2_23 
REMARK    3  A    between atoms: C5_5  and  N1_8 
REMARK    4  A    between atoms: N1_8  and  C8_9 
REMARK    5  A    between atoms: O2_23  and  C16_24 
ROOT
ATOM      1  C8   11 d         -10.449 208.785 115.172  0.00  0.00     0.179 A 
ATOM      2  C9   11 d          -9.364 209.204 114.378  0.00  0.00     0.222 A 
ATOM      3  N2   11 d          -8.249 209.878 114.707  0.00  0.00    -0.105 NA
ATOM      4  N3   11 d          -7.567 210.012 113.600  0.00  0.00    -0.022 NA
ATOM      5  N4   11 d          -8.201 209.454 112.602  0.00  0.00    -0.038 NA
ATOM      6  N5   11 d          -9.305 208.954 113.063  0.00  0.00    -0.188 N 
ATOM      7  C10  11 d         -10.287 208.276 112.403  0.00  0.00     0.091 A 
ATOM      8  C11  11 d         -11.408 207.850 113.167  0.00  0.00     0.088 A 
ATOM      9  N6   11 d         -11.457 208.125 114.512  0.00  0.00    -0.225 NA
ATOM     10  C12  11 d         -12.447 207.143 112.542  0.00  0.00     0.034 A 
ATOM     11  C13  11 d         -12.375 206.857 111.168  0.00  0.00     0.002 A 
ATOM     12  C14  11 d         -11.270 207.280 110.413  0.00  0.00     0.002 A 
ATOM     13  C15  11 d         -10.225 207.991 111.026  0.00  0.00     0.034 A 
ENDROOT
BRANCH   1  14
ATOM     14  N1   11 d         -10.477 209.069 116.538  0.00  0.00    -0.338 N 
ATOM     15  H5   11 d         -10.624 210.024 116.781  0.00  0.00     0.167 HD
BRANCH  14  16
ATOM     16  C5   11 d         -10.323 208.168 117.599  0.00  0.00     0.033 A 
ATOM     17  C4   11 d          -9.175 208.311 118.408  0.00  0.00     0.030 A 
ATOM     18  C3   11 d          -8.912 207.428 119.463  0.00  0.00     0.020 A 
ATOM     19  C2   11 d          -9.799 206.373 119.754  0.00  0.00     0.039 A 
ATOM     20  C7   11 d         -10.951 206.224 118.958  0.00  0.00     0.020 A 
ATOM     21  C6   11 d         -11.203 207.096 117.885  0.00  0.00     0.030 A 
BRANCH  19  22
ATOM     22  C1   11 d          -9.514 205.427 120.867  0.00  0.00     0.293 C 
ATOM     23  O1   11 d          -8.338 205.292 121.299  0.00  0.00    -0.259 OA
BRANCH  22  24
ATOM     24  O2   11 d         -10.566 204.660 121.450  0.00  0.00    -0.318 OA
BRANCH  24  25
ATOM     25  C16  11 d         -10.390 204.565 122.887  0.00  0.00     0.174 C 
ATOM     26  C17  11 d         -11.501 203.705 123.469  0.00  0.00     0.034 C 
ENDBRANCH  24  25
ENDBRANCH  22  24
ENDBRANCH  19  22
ENDBRANCH  14  16
ENDBRANCH   1  14
TORSDOF 5
ENDMDL
MODEL 16
REMARK VINA RESULT:      -7.6      3.900      8.094
REMARK  5 active torsions:
REMARK  status: ('A' for Active; 'I' for Inactive)
REMARK    1  A    between atoms: C1_1  and  C2_2 
REMARK    2  A    between atoms: C1_1  and  O2_23 
REMARK    3  A    between atoms: C5_5  and  N1_8 
REMARK    4  A    between atoms: N1_8  and  C8_9 
REMARK    5  A    between atoms: O2_23  and  C16_24 
ROOT
ATOM      1  C8   11 d         -14.157 204.755 118.574  0.00  0.00     0.179 A 
ATOM      2  C9   11 d         -15.070 203.695 118.405  0.00  0.00     0.222 A 
ATOM      3  N2   11 d         -15.175 202.780 117.427  0.00  0.00    -0.105 NA
ATOM      4  N3   11 d         -16.190 202.022 117.747  0.00  0.00    -0.022 NA
ATOM      5  N4   11 d         -16.719 202.420 118.875  0.00  0.00    -0.038 NA
ATOM      6  N5   11 d         -16.043 203.445 119.291  0.00  0.00    -0.188 N 
ATOM      7  C10  11 d         -16.217 204.195 120.417  0.00  0.00     0.091 A 
ATOM      8  C11  11 d         -15.326 205.284 120.616  0.00  0.00     0.088 A 
ATOM      9  N6   11 d         -14.340 205.533 119.690  0.00  0.00    -0.225 NA
ATOM     10  C12  11 d         -15.454 206.087 121.760  0.00  0.00     0.034 A 
ATOM     11  C13  11 d         -16.458 205.811 122.703  0.00  0.00     0.002 A 
ATOM     12  C14  11 d         -17.340 204.737 122.506  0.00  0.00     0.002 A 
ATOM     13  C15  11 d         -17.224 203.927 121.363  0.00  0.00     0.034 A 
ENDROOT
BRANCH   1  14
ATOM     14  N1   11 d         -13.160 204.987 117.626  0.00  0.00    -0.338 N 
ATOM     15  H5   11 d         -12.223 204.841 117.934  0.00  0.00     0.167 HD
BRANCH  14  16
ATOM     16  C5   11 d         -13.326 205.401 116.298  0.00  0.00     0.033 A 
ATOM     17  C4   11 d         -12.159 205.599 115.530  0.00  0.00     0.030 A 
ATOM     18  C3   11 d         -12.225 206.057 114.208  0.00  0.00     0.020 A 
ATOM     19  C2   11 d         -13.468 206.322 113.602  0.00  0.00     0.039 A 
ATOM     20  C7   11 d         -14.641 206.122 114.355  0.00  0.00     0.020 A 
ATOM     21  C6   11 d         -14.573 205.685 115.690  0.00  0.00     0.030 A 
BRANCH  19  22
ATOM     22  C1   11 d         -13.539 206.821 112.201  0.00  0.00     0.293 C 
ATOM     23  O1   11 d         -12.652 206.495 111.368  0.00  0.00    -0.259 OA
BRANCH  22  24
ATOM     24  O2   11 d         -14.606 207.674 111.791  0.00  0.00    -0.318 OA
BRANCH  24  25
ATOM     25  C16  11 d         -15.334 207.082 110.685  0.00  0.00     0.174 C 
ATOM     26  C17  11 d         -16.584 206.401 111.220  0.00  0.00     0.034 C 
ENDBRANCH  24  25
ENDBRANCH  22  24
ENDBRANCH  19  22
ENDBRANCH  14  16
ENDBRANCH   1  14
TORSDOF 5
ENDMDL
MODEL 17
REMARK VINA RESULT:      -7.6      6.800      8.740
REMARK  5 active torsions:
REMARK  status: ('A' for Active; 'I' for Inactive)
REMARK    1  A    between atoms: C1_1  and  C2_2 
REMARK    2  A    between atoms: C1_1  and  O2_23 
REMARK    3  A    between atoms: C5_5  and  N1_8 
REMARK    4  A    between atoms: N1_8  and  C8_9 
REMARK    5  A    between atoms: O2_23  and  C16_24 
ROOT
ATOM      1  C8   11 d          -8.966 209.208 113.906  0.00  0.00     0.179 A 
ATOM      2  C9   11 d          -9.964 208.590 114.684  0.00  0.00     0.222 A 
ATOM      3  N2   11 d         -10.136 208.552 116.016  0.00  0.00    -0.105 NA
ATOM      4  N3   11 d         -11.217 207.847 116.222  0.00  0.00    -0.022 NA
ATOM      5  N4   11 d         -11.726 207.448 115.085  0.00  0.00    -0.038 NA
ATOM      6  N5   11 d         -10.968 207.895 114.133  0.00  0.00    -0.188 N 
ATOM      7  C10  11 d         -11.097 207.739 112.784  0.00  0.00     0.091 A 
ATOM      8  C11  11 d         -10.099 208.334 111.965  0.00  0.00     0.088 A 
ATOM      9  N6   11 d          -9.069 209.034 112.547  0.00  0.00    -0.225 NA
ATOM     10  C12  11 d         -10.181 208.212 110.568  0.00  0.00     0.034 A 
ATOM     11  C13  11 d         -11.248 207.505 109.987  0.00  0.00     0.002 A 
ATOM     12  C14  11 d         -12.232 206.915 110.797  0.00  0.00     0.002 A 
ATOM     13  C15  11 d         -12.159 207.028 112.195  0.00  0.00     0.034 A 
ENDROOT
BRANCH   1  14
ATOM     14  N1   11 d          -7.932 209.919 114.517  0.00  0.00    -0.338 N 
ATOM     15  H5   11 d          -8.112 210.882 114.695  0.00  0.00     0.167 HD
BRANCH  14  16
ATOM     16  C5   11 d          -6.677 209.432 114.905  0.00  0.00     0.033 A 
ATOM     17  C4   11 d          -5.971 210.168 115.880  0.00  0.00     0.030 A 
ATOM     18  C3   11 d          -4.689 209.784 116.296  0.00  0.00     0.020 A 
ATOM     19  C2   11 d          -4.073 208.639 115.758  0.00  0.00     0.039 A 
ATOM     20  C7   11 d          -4.770 207.891 114.788  0.00  0.00     0.020 A 
ATOM     21  C6   11 d          -6.047 208.290 114.353  0.00  0.00     0.030 A 
BRANCH  19  22
ATOM     22  C1   11 d          -2.707 208.237 116.190  0.00  0.00     0.293 C 
ATOM     23  O1   11 d          -1.775 208.151 115.346  0.00  0.00    -0.259 OA
BRANCH  22  24
ATOM     24  O2   11 d          -2.440 207.939 117.559  0.00  0.00    -0.318 OA
BRANCH  24  25
ATOM     25  C16  11 d          -2.986 206.643 117.914  0.00  0.00     0.174 C 
ATOM     26  C17  11 d          -4.065 206.829 118.969  0.00  0.00     0.034 C 
ENDBRANCH  24  25
ENDBRANCH  22  24
ENDBRANCH  19  22
ENDBRANCH  14  16
ENDBRANCH   1  14
TORSDOF 5
ENDMDL
MODEL 18
REMARK VINA RESULT:      -7.3      1.929      2.242
REMARK  5 active torsions:
REMARK  status: ('A' for Active; 'I' for Inactive)
REMARK    1  A    between atoms: C1_1  and  C2_2 
REMARK    2  A    between atoms: C1_1  and  O2_23 
REMARK    3  A    between atoms: C5_5  and  N1_8 
REMARK    4  A    between atoms: N1_8  and  C8_9 
REMARK    5  A    between atoms: O2_23  and  C16_24 
ROOT
ATOM      1  C8   11 d         -12.499 207.521 114.885  0.00  0.00     0.179 A 
ATOM      2  C9   11 d         -11.617 207.749 113.811  0.00  0.00     0.222 A 
ATOM      3  N2   11 d         -10.406 208.330 113.782  0.00  0.00    -0.105 NA
ATOM      4  N3   11 d         -10.014 208.289 112.536  0.00  0.00    -0.022 NA
ATOM      5  N4   11 d         -10.920 207.711 111.791  0.00  0.00    -0.038 NA
ATOM      6  N5   11 d         -11.909 207.374 112.558  0.00  0.00    -0.188 N 
ATOM      7  C10  11 d         -13.076 206.746 112.236  0.00  0.00     0.091 A 
ATOM      8  C11  11 d         -14.000 206.512 113.290  0.00  0.00     0.088 A 
ATOM      9  N6   11 d         -13.689 206.913 114.568  0.00  0.00    -0.225 NA
ATOM     10  C12  11 d         -15.215 205.863 113.019  0.00  0.00     0.034 A 
ATOM     11  C13  11 d         -15.512 205.446 111.711  0.00  0.00     0.002 A 
ATOM     12  C14  11 d         -14.600 205.679 110.669  0.00  0.00     0.002 A 
ATOM     13  C15  11 d         -13.383 206.330 110.926  0.00  0.00     0.034 A 
ENDROOT
BRANCH   1  14
ATOM     14  N1   11 d         -12.162 207.931 116.176  0.00  0.00    -0.338 N 
ATOM     15  H5   11 d         -11.568 208.729 116.238  0.00  0.00     0.167 HD
BRANCH  14  16
ATOM     16  C5   11 d         -12.562 207.351 117.386  0.00  0.00     0.033 A 
ATOM     17  C4   11 d         -11.654 206.472 118.014  0.00  0.00     0.030 A 
ATOM     18  C3   11 d         -11.985 205.809 119.203  0.00  0.00     0.020 A 
ATOM     19  C2   11 d         -13.237 206.012 119.813  0.00  0.00     0.039 A 
ATOM     20  C7   11 d         -14.150 206.892 119.200  0.00  0.00     0.020 A 
ATOM     21  C6   11 d         -13.827 207.539 117.994  0.00  0.00     0.030 A 
BRANCH  19  22
ATOM     22  C1   11 d         -13.595 205.298 121.069  0.00  0.00     0.293 C 
ATOM     23  O1   11 d         -14.329 204.275 121.029  0.00  0.00    -0.259 OA
BRANCH  22  24
ATOM     24  O2   11 d         -13.117 205.768 122.329  0.00  0.00    -0.318 OA
BRANCH  24  25
ATOM     25  C16  11 d         -14.223 206.188 123.168  0.00  0.00     0.174 C 
ATOM     26  C17  11 d         -13.693 206.552 124.546  0.00  0.00     0.034 C 
ENDBRANCH  24  25
ENDBRANCH  22  24
ENDBRANCH  19  22
ENDBRANCH  14  16
ENDBRANCH   1  14
TORSDOF 5
ENDMDL
MODEL 19
REMARK VINA RESULT:      -7.3      1.967      2.527
REMARK  5 active torsions:
REMARK  status: ('A' for Active; 'I' for Inactive)
REMARK    1  A    between atoms: C1_1  and  C2_2 
REMARK    2  A    between atoms: C1_1  and  O2_23 
REMARK    3  A    between atoms: C5_5  and  N1_8 
REMARK    4  A    between atoms: N1_8  and  C8_9 
REMARK    5  A    between atoms: O2_23  and  C16_24 
ROOT
ATOM      1  C8   11 d         -12.039 207.664 114.609  0.00  0.00     0.179 A 
ATOM      2  C9   11 d         -10.908 207.959 113.823  0.00  0.00     0.222 A 
ATOM      3  N2   11 d          -9.678 208.366 114.179  0.00  0.00    -0.105 NA
ATOM      4  N3   11 d          -9.004 208.496 113.067  0.00  0.00    -0.022 NA
ATOM      5  N4   11 d          -9.752 208.188 112.040  0.00  0.00    -0.038 NA
ATOM      6  N5   11 d         -10.923 207.857 112.487  0.00  0.00    -0.188 N 
ATOM      7  C10  11 d         -12.030 207.460 111.796  0.00  0.00     0.091 A 
ATOM      8  C11  11 d         -13.197 207.169 112.552  0.00  0.00     0.088 A 
ATOM      9  N6   11 d         -13.168 207.290 113.921  0.00  0.00    -0.225 NA
ATOM     10  C12  11 d         -14.365 206.750 111.896  0.00  0.00     0.034 A 
ATOM     11  C13  11 d         -14.375 206.617 110.497  0.00  0.00     0.002 A 
ATOM     12  C14  11 d         -13.223 206.907 109.749  0.00  0.00     0.002 A 
ATOM     13  C15  11 d         -12.049 207.330 110.394  0.00  0.00     0.034 A 
ENDROOT
BRANCH   1  14
ATOM     14  N1   11 d         -11.987 207.788 115.998  0.00  0.00    -0.338 N 
ATOM     15  H5   11 d         -11.373 208.489 116.350  0.00  0.00     0.167 HD
BRANCH  14  16
ATOM     16  C5   11 d         -12.696 207.041 116.947  0.00  0.00     0.033 A 
ATOM     17  C4   11 d         -12.936 205.682 116.652  0.00  0.00     0.030 A 
ATOM     18  C3   11 d         -13.676 204.868 117.519  0.00  0.00     0.020 A 
ATOM     19  C2   11 d         -14.194 205.385 118.722  0.00  0.00     0.039 A 
ATOM     20  C7   11 d         -13.955 206.738 119.031  0.00  0.00     0.020 A 
ATOM     21  C6   11 d         -13.232 207.561 118.149  0.00  0.00     0.030 A 
BRANCH  19  22
ATOM     22  C1   11 d         -14.991 204.524 119.638  0.00  0.00     0.293 C 
ATOM     23  O1   11 d         -15.483 205.008 120.693  0.00  0.00    -0.259 OA
BRANCH  22  24
ATOM     24  O2   11 d         -15.200 203.146 119.336  0.00  0.00    -0.318 OA
BRANCH  24  25
ATOM     25  C16  11 d         -16.605 202.890 119.077  0.00  0.00     0.174 C 
ATOM     26  C17  11 d         -16.788 202.569 117.602  0.00  0.00     0.034 C 
ENDBRANCH  24  25
ENDBRANCH  22  24
ENDBRANCH  19  22
ENDBRANCH  14  16
ENDBRANCH   1  14
TORSDOF 5
ENDMDL
MODEL 20
REMARK VINA RESULT:      -7.3      3.587      4.992
REMARK  5 active torsions:
REMARK  status: ('A' for Active; 'I' for Inactive)
REMARK    1  A    between atoms: C1_1  and  C2_2 
REMARK    2  A    between atoms: C1_1  and  O2_23 
REMARK    3  A    between atoms: C5_5  and  N1_8 
REMARK    4  A    between atoms: N1_8  and  C8_9 
REMARK    5  A    between atoms: O2_23  and  C16_24 
ROOT
ATOM      1  C8   11 d         -12.379 207.769 115.288  0.00  0.00     0.179 A 
ATOM      2  C9   11 d         -13.412 207.004 114.712  0.00  0.00     0.222 A 
ATOM      3  N2   11 d         -14.512 206.464 115.265  0.00  0.00    -0.105 NA
ATOM      4  N3   11 d         -15.140 205.852 114.296  0.00  0.00    -0.022 NA
ATOM      5  N4   11 d         -14.487 205.986 113.171  0.00  0.00    -0.038 NA
ATOM      6  N5   11 d         -13.425 206.690 113.410  0.00  0.00    -0.188 N 
ATOM      7  C10  11 d         -12.444 207.090 112.551  0.00  0.00     0.091 A 
ATOM      8  C11  11 d         -11.374 207.851 113.097  0.00  0.00     0.088 A 
ATOM      9  N6   11 d         -11.371 208.154 114.437  0.00  0.00    -0.225 NA
ATOM     10  C12  11 d         -10.339 208.295 112.259  0.00  0.00     0.034 A 
ATOM     11  C13  11 d         -10.364 207.989 110.888  0.00  0.00     0.002 A 
ATOM     12  C14  11 d         -11.419 207.235 110.350  0.00  0.00     0.002 A 
ATOM     13  C15  11 d         -12.459 206.782 111.178  0.00  0.00     0.034 A 
ENDROOT
BRANCH   1  14
ATOM     14  N1   11 d         -12.397 208.071 116.650  0.00  0.00    -0.338 N 
ATOM     15  H5   11 d         -13.063 208.755 116.936  0.00  0.00     0.167 HD
BRANCH  14  16
ATOM     16  C5   11 d         -11.588 207.525 117.654  0.00  0.00     0.033 A 
ATOM     17  C4   11 d         -10.396 208.211 117.970  0.00  0.00     0.030 A 
ATOM     18  C3   11 d          -9.501 207.716 118.927  0.00  0.00     0.020 A 
ATOM     19  C2   11 d          -9.776 206.518 119.614  0.00  0.00     0.039 A 
ATOM     20  C7   11 d         -10.966 205.827 119.313  0.00  0.00     0.020 A 
ATOM     21  C6   11 d         -11.852 206.312 118.335  0.00  0.00     0.030 A 
BRANCH  19  22
ATOM     22  C1   11 d          -8.820 205.984 120.623  0.00  0.00     0.293 C 
ATOM     23  O1   11 d          -7.681 206.507 120.755  0.00  0.00    -0.259 OA
BRANCH  22  24
ATOM     24  O2   11 d          -9.180 204.874 121.443  0.00  0.00    -0.318 OA
BRANCH  24  25
ATOM     25  C16  11 d          -8.630 205.027 122.776  0.00  0.00     0.174 C 
ATOM     26  C17  11 d          -9.443 204.188 123.750  0.00  0.00     0.034 C 
ENDBRANCH  24  25
ENDBRANCH  22  24
ENDBRANCH  19  22
ENDBRANCH  14  16
ENDBRANCH   1  14
TORSDOF 5
ENDMDL
