MODEL 1
REMARK VINA RESULT:      -7.9      0.000      0.000
REMARK  0 active torsions:
REMARK  status: ('A' for Active; 'I' for Inactive)
ROOT
ATOM      1  C1   11 d         -10.058 208.154 112.697  0.00  0.00     0.055 A 
ATOM      2  N1   11 d         -11.160 207.837 111.988  0.00  0.00    -0.169 NA
ATOM      3  N2   11 d         -12.089 207.634 112.933  0.00  0.00    -0.197 N 
ATOM      4  C2   11 d         -11.609 207.812 114.198  0.00  0.00     0.158 A 
ATOM      5  N3   11 d         -12.505 207.622 115.224  0.00  0.00    -0.197 N 
ATOM      6  C3   11 d         -13.811 207.274 115.031  0.00  0.00     0.158 A 
ATOM      7  N4   11 d         -14.214 207.115 113.727  0.00  0.00    -0.197 N 
ATOM      8  C4   11 d         -13.388 207.285 112.654  0.00  0.00     0.158 A 
ATOM      9  C5   11 d         -14.115 207.049 111.523  0.00  0.00     0.081 A 
ATOM     10  C6   11 d         -15.410 206.734 112.031  0.00  0.00     0.055 A 
ATOM     11  N5   11 d         -15.462 206.776 113.377  0.00  0.00    -0.169 NA
ATOM     12  C7   11 d         -16.604 206.390 111.223  0.00  0.00     0.072 C 
ATOM     13  C8   11 d         -14.403 207.172 116.256  0.00  0.00     0.081 A 
ATOM     14  C9   11 d         -13.341 207.486 117.155  0.00  0.00     0.055 A 
ATOM     15  N6   11 d         -12.186 207.760 116.517  0.00  0.00    -0.169 NA
ATOM     16  C10  11 d         -13.433 207.523 118.634  0.00  0.00     0.072 C 
ATOM     17  C11  11 d         -10.291 208.152 114.104  0.00  0.00     0.081 A 
ATOM     18  C12  11 d          -8.725 208.477 112.137  0.00  0.00     0.072 C 
ENDROOT
TORSDOF 0
ENDMDL
MODEL 2
REMARK VINA RESULT:      -7.9      1.286      4.134
REMARK  0 active torsions:
REMARK  status: ('A' for Active; 'I' for Inactive)
ROOT
ATOM      1  C1   11 d         -15.269 206.802 111.999  0.00  0.00     0.055 A 
ATOM      2  N1   11 d         -14.004 207.090 111.631  0.00  0.00    -0.169 NA
ATOM      3  N2   11 d         -13.375 207.273 112.800  0.00  0.00    -0.197 N 
ATOM      4  C2   11 d         -14.196 207.113 113.878  0.00  0.00     0.158 A 
ATOM      5  N3   11 d         -13.621 207.285 115.115  0.00  0.00    -0.197 N 
ATOM      6  C3   11 d         -12.305 207.600 115.299  0.00  0.00     0.158 A 
ATOM      7  N4   11 d         -11.547 207.744 114.162  0.00  0.00    -0.197 N 
ATOM      8  C4   11 d         -12.041 207.590 112.899  0.00  0.00     0.158 A 
ATOM      9  C5   11 d         -11.020 207.804 112.020  0.00  0.00     0.081 A 
ATOM     10  C6   11 d          -9.913 208.089 112.873  0.00  0.00     0.055 A 
ATOM     11  N5   11 d         -10.243 208.051 114.179  0.00  0.00    -0.169 NA
ATOM     12  C7   11 d          -8.531 208.400 112.436  0.00  0.00     0.072 C 
ATOM     13  C8   11 d         -12.080 207.692 116.642  0.00  0.00     0.081 A 
ATOM     14  C9   11 d         -13.361 207.408 117.204  0.00  0.00     0.055 A 
ATOM     15  N6   11 d         -14.295 207.159 116.265  0.00  0.00    -0.169 NA
ATOM     16  C10  11 d         -13.690 207.374 118.649  0.00  0.00     0.072 C 
ATOM     17  C11  11 d         -15.442 206.804 113.415  0.00  0.00     0.081 A 
ATOM     18  C12  11 d         -16.398 206.509 111.085  0.00  0.00     0.072 C 
ENDROOT
TORSDOF 0
ENDMDL
MODEL 3
REMARK VINA RESULT:      -7.9      2.014      5.723
REMARK  0 active torsions:
REMARK  status: ('A' for Active; 'I' for Inactive)
ROOT
ATOM      1  C1   11 d         -17.175 206.443 111.959  0.00  0.00     0.055 A 
ATOM      2  N1   11 d         -16.745 206.085 113.185  0.00  0.00    -0.169 NA
ATOM      3  N2   11 d         -15.414 206.205 113.095  0.00  0.00    -0.197 N 
ATOM      4  C2   11 d         -14.999 206.622 111.864  0.00  0.00     0.158 A 
ATOM      5  N3   11 d         -13.642 206.770 111.694  0.00  0.00    -0.197 N 
ATOM      6  C3   11 d         -12.727 206.523 112.676  0.00  0.00     0.158 A 
ATOM      7  N4   11 d         -13.227 206.106 113.886  0.00  0.00    -0.197 N 
ATOM      8  C4   11 d         -14.558 205.936 114.136  0.00  0.00     0.158 A 
ATOM      9  C5   11 d         -14.692 205.519 115.429  0.00  0.00     0.081 A 
ATOM     10  C6   11 d         -13.345 205.466 115.893  0.00  0.00     0.055 A 
ATOM     11  N5   11 d         -12.457 205.826 114.946  0.00  0.00    -0.169 NA
ATOM     12  C7   11 d         -12.905 205.068 117.252  0.00  0.00     0.072 C 
ATOM     13  C8   11 d         -11.486 206.771 112.165  0.00  0.00     0.081 A 
ATOM     14  C9   11 d         -11.764 207.175 110.825  0.00  0.00     0.055 A 
ATOM     15  N6   11 d         -13.083 207.172 110.546  0.00  0.00    -0.169 NA
ATOM     16  C10  11 d         -10.760 207.565 109.806  0.00  0.00     0.072 C 
ATOM     17  C11  11 d         -16.105 206.793 111.083  0.00  0.00     0.081 A 
ATOM     18  C12  11 d         -18.586 206.489 111.507  0.00  0.00     0.072 C 
ENDROOT
TORSDOF 0
ENDMDL
MODEL 4
REMARK VINA RESULT:      -7.9      1.283      4.121
REMARK  0 active torsions:
REMARK  status: ('A' for Active; 'I' for Inactive)
ROOT
ATOM      1  C1   11 d          -9.950 208.120 112.985  0.00  0.00     0.055 A 
ATOM      2  N1   11 d         -10.281 208.070 114.290  0.00  0.00    -0.169 NA
ATOM      3  N2   11 d         -11.582 207.749 114.268  0.00  0.00    -0.197 N 
ATOM      4  C2   11 d         -12.072 207.598 113.004  0.00  0.00     0.158 A 
ATOM      5  N3   11 d         -13.402 207.266 112.899  0.00  0.00    -0.197 N 
ATOM      6  C3   11 d         -14.223 207.089 113.975  0.00  0.00     0.158 A 
ATOM      7  N4   11 d         -13.652 207.260 115.213  0.00  0.00    -0.197 N 
ATOM      8  C4   11 d         -12.341 207.588 115.402  0.00  0.00     0.158 A 
ATOM      9  C5   11 d         -12.120 207.675 116.746  0.00  0.00     0.081 A 
ATOM     10  C6   11 d         -13.397 207.373 117.305  0.00  0.00     0.055 A 
ATOM     11  N5   11 d         -14.327 207.121 116.362  0.00  0.00    -0.169 NA
ATOM     12  C7   11 d         -13.729 207.325 118.749  0.00  0.00     0.072 C 
ATOM     13  C8   11 d         -15.465 206.770 113.508  0.00  0.00     0.081 A 
ATOM     14  C9   11 d         -15.289 206.780 112.092  0.00  0.00     0.055 A 
ATOM     15  N6   11 d         -14.027 207.083 111.729  0.00  0.00    -0.169 NA
ATOM     16  C10  11 d         -16.336 206.497 111.081  0.00  0.00     0.072 C 
ATOM     17  C11  11 d         -11.052 207.828 112.127  0.00  0.00     0.081 A 
ATOM     18  C12  11 d          -8.610 208.438 112.436  0.00  0.00     0.072 C 
ENDROOT
TORSDOF 0
ENDMDL
MODEL 5
REMARK VINA RESULT:      -7.9      1.211      5.292
REMARK  0 active torsions:
REMARK  status: ('A' for Active; 'I' for Inactive)
ROOT
ATOM      1  C1   11 d         -12.882 207.362 117.104  0.00  0.00     0.055 A 
ATOM      2  N1   11 d         -11.775 207.942 116.600  0.00  0.00    -0.169 NA
ATOM      3  N2   11 d         -11.830 207.633 115.297  0.00  0.00    -0.197 N 
ATOM      4  C2   11 d         -12.923 206.885 114.972  0.00  0.00     0.158 A 
ATOM      5  N3   11 d         -13.049 206.529 113.650  0.00  0.00    -0.197 N 
ATOM      6  C3   11 d         -12.152 206.882 112.684  0.00  0.00     0.158 A 
ATOM      7  N4   11 d         -11.079 207.636 113.094  0.00  0.00    -0.197 N 
ATOM      8  C4   11 d         -10.882 208.031 114.385  0.00  0.00     0.158 A 
ATOM      9  C5   11 d          -9.727 208.758 114.429  0.00  0.00     0.081 A 
ATOM     10  C6   11 d          -9.286 208.747 113.074  0.00  0.00     0.055 A 
ATOM     11  N5   11 d         -10.116 208.060 112.265  0.00  0.00    -0.169 NA
ATOM     12  C7   11 d          -8.061 209.399 112.550  0.00  0.00     0.072 C 
ATOM     13  C8   11 d         -12.586 206.364 111.499  0.00  0.00     0.081 A 
ATOM     14  C9   11 d         -13.791 205.692 111.862  0.00  0.00     0.055 A 
ATOM     15  N6   11 d         -14.067 205.798 113.177  0.00  0.00    -0.169 NA
ATOM     16  C10  11 d         -14.683 204.943 110.945  0.00  0.00     0.072 C 
ATOM     17  C11  11 d         -13.645 206.678 116.112  0.00  0.00     0.081 A 
ATOM     18  C12  11 d         -13.314 207.392 118.522  0.00  0.00     0.072 C 
ENDROOT
TORSDOF 0
ENDMDL
MODEL 6
REMARK VINA RESULT:      -7.8      1.296      4.111
REMARK  0 active torsions:
REMARK  status: ('A' for Active; 'I' for Inactive)
ROOT
ATOM      1  C1   11 d         -13.519 207.298 117.308  0.00  0.00     0.055 A 
ATOM      2  N1   11 d         -14.427 207.068 116.338  0.00  0.00    -0.169 NA
ATOM      3  N2   11 d         -13.720 207.219 115.210  0.00  0.00    -0.197 N 
ATOM      4  C2   11 d         -12.412 207.532 115.439  0.00  0.00     0.158 A 
ATOM      5  N3   11 d         -11.620 207.702 114.327  0.00  0.00    -0.197 N 
ATOM      6  C3   11 d         -12.078 207.574 113.047  0.00  0.00     0.158 A 
ATOM      7  N4   11 d         -13.408 207.256 112.904  0.00  0.00    -0.197 N 
ATOM      8  C4   11 d         -14.258 207.070 113.955  0.00  0.00     0.158 A 
ATOM      9  C5   11 d         -15.490 206.770 113.449  0.00  0.00     0.081 A 
ATOM     10  C6   11 d         -15.277 206.798 112.039  0.00  0.00     0.055 A 
ATOM     11  N5   11 d         -14.003 207.095 111.715  0.00  0.00    -0.169 NA
ATOM     12  C7   11 d         -16.298 206.538 110.997  0.00  0.00     0.072 C 
ATOM     13  C8   11 d         -11.033 207.807 112.203  0.00  0.00     0.081 A 
ATOM     14  C9   11 d          -9.952 208.078 113.094  0.00  0.00     0.055 A 
ATOM     15  N6   11 d         -10.319 208.011 114.389  0.00  0.00    -0.169 NA
ATOM     16  C10  11 d          -8.559 208.403 112.702  0.00  0.00     0.072 C 
ATOM     17  C11  11 d         -12.225 207.597 116.789  0.00  0.00     0.081 A 
ATOM     18  C12  11 d         -13.774 207.261 118.768  0.00  0.00     0.072 C 
ENDROOT
TORSDOF 0
ENDMDL
MODEL 7
REMARK VINA RESULT:      -7.8      1.204      4.911
REMARK  0 active torsions:
REMARK  status: ('A' for Active; 'I' for Inactive)
ROOT
ATOM      1  C1   11 d         -13.771 205.804 111.822  0.00  0.00     0.055 A 
ATOM      2  N1   11 d         -14.057 205.912 113.135  0.00  0.00    -0.169 NA
ATOM      3  N2   11 d         -13.025 206.617 113.620  0.00  0.00    -0.197 N 
ATOM      4  C2   11 d         -12.111 206.950 112.663  0.00  0.00     0.158 A 
ATOM      5  N3   11 d         -11.022 207.676 113.085  0.00  0.00    -0.197 N 
ATOM      6  C3   11 d         -10.828 208.063 114.380  0.00  0.00     0.158 A 
ATOM      7  N4   11 d         -11.795 207.687 115.281  0.00  0.00    -0.197 N 
ATOM      8  C4   11 d         -12.904 206.967 114.943  0.00  0.00     0.158 A 
ATOM      9  C5   11 d         -13.641 206.776 116.076  0.00  0.00     0.081 A 
ATOM     10  C6   11 d         -12.872 207.437 117.078  0.00  0.00     0.055 A 
ATOM     11  N5   11 d         -11.746 207.991 116.584  0.00  0.00    -0.169 NA
ATOM     12  C7   11 d         -13.216 207.540 118.516  0.00  0.00     0.072 C 
ATOM     13  C8   11 d          -9.657 208.760 114.438  0.00  0.00     0.081 A 
ATOM     14  C9   11 d          -9.202 208.742 113.085  0.00  0.00     0.055 A 
ATOM     15  N6   11 d         -10.042 208.078 112.266  0.00  0.00    -0.169 NA
ATOM     16  C10  11 d          -7.956 209.362 112.575  0.00  0.00     0.072 C 
ATOM     17  C11  11 d         -12.546 206.446 111.472  0.00  0.00     0.081 A 
ATOM     18  C12  11 d         -14.594 205.108 110.804  0.00  0.00     0.072 C 
ENDROOT
TORSDOF 0
ENDMDL
MODEL 8
REMARK VINA RESULT:      -7.8      1.993      4.953
REMARK  0 active torsions:
REMARK  status: ('A' for Active; 'I' for Inactive)
ROOT
ATOM      1  C1   11 d         -13.418 205.415 115.928  0.00  0.00     0.055 A 
ATOM      2  N1   11 d         -12.507 205.788 115.006  0.00  0.00    -0.169 NA
ATOM      3  N2   11 d         -13.254 206.081 113.933  0.00  0.00    -0.197 N 
ATOM      4  C2   11 d         -14.590 205.904 114.149  0.00  0.00     0.158 A 
ATOM      5  N3   11 d         -15.423 206.186 113.092  0.00  0.00    -0.197 N 
ATOM      6  C3   11 d         -14.979 206.619 111.876  0.00  0.00     0.158 A 
ATOM      7  N4   11 d         -13.620 206.771 111.740  0.00  0.00    -0.197 N 
ATOM      8  C4   11 d         -12.727 206.514 112.740  0.00  0.00     0.158 A 
ATOM      9  C5   11 d         -11.476 206.770 112.261  0.00  0.00     0.081 A 
ATOM     10  C6   11 d         -11.722 207.191 110.921  0.00  0.00     0.055 A 
ATOM     11  N5   11 d         -13.034 207.189 110.611  0.00  0.00    -0.169 NA
ATOM     12  C7   11 d         -10.696 207.597 109.931  0.00  0.00     0.072 C 
ATOM     13  C8   11 d         -16.067 206.798 111.072  0.00  0.00     0.081 A 
ATOM     14  C9   11 d         -17.157 206.435 111.918  0.00  0.00     0.055 A 
ATOM     15  N6   11 d         -16.755 206.063 113.150  0.00  0.00    -0.169 NA
ATOM     16  C10  11 d         -18.591 206.443 111.544  0.00  0.00     0.072 C 
ATOM     17  C11  11 d         -14.755 205.471 115.433  0.00  0.00     0.081 A 
ATOM     18  C12  11 d         -13.128 204.983 117.315  0.00  0.00     0.072 C 
ENDROOT
TORSDOF 0
ENDMDL
MODEL 9
REMARK VINA RESULT:      -7.8      1.222      1.270
REMARK  0 active torsions:
REMARK  status: ('A' for Active; 'I' for Inactive)
ROOT
ATOM      1  C1   11 d          -9.237 208.784 113.253  0.00  0.00     0.055 A 
ATOM      2  N1   11 d         -10.040 208.120 112.398  0.00  0.00    -0.169 NA
ATOM      3  N2   11 d         -11.039 207.691 113.181  0.00  0.00    -0.197 N 
ATOM      4  C2   11 d         -10.890 208.060 114.486  0.00  0.00     0.158 A 
ATOM      5  N3   11 d         -11.879 207.657 115.353  0.00  0.00    -0.197 N 
ATOM      6  C3   11 d         -12.966 206.926 114.970  0.00  0.00     0.158 A 
ATOM      7  N4   11 d         -13.041 206.595 113.638  0.00  0.00    -0.197 N 
ATOM      8  C4   11 d         -12.103 206.957 112.715  0.00  0.00     0.158 A 
ATOM      9  C5   11 d         -12.495 206.464 111.504  0.00  0.00     0.081 A 
ATOM     10  C6   11 d         -13.719 205.799 111.806  0.00  0.00     0.055 A 
ATOM     11  N5   11 d         -14.046 205.883 113.111  0.00  0.00    -0.169 NA
ATOM     12  C7   11 d         -14.582 205.077 110.840  0.00  0.00     0.072 C 
ATOM     13  C8   11 d         -13.734 206.706 116.076  0.00  0.00     0.081 A 
ATOM     14  C9   11 d         -13.004 207.364 117.111  0.00  0.00     0.055 A 
ATOM     15  N6   11 d         -11.873 207.942 116.661  0.00  0.00    -0.169 NA
ATOM     16  C10  11 d         -13.393 207.437 118.540  0.00  0.00     0.072 C 
ATOM     17  C11  11 d          -9.732 208.775 114.591  0.00  0.00     0.081 A 
ATOM     18  C12  11 d          -7.968 209.466 112.907  0.00  0.00     0.072 C 
ENDROOT
TORSDOF 0
ENDMDL
MODEL 10
REMARK VINA RESULT:      -7.8      1.980      2.238
REMARK  0 active torsions:
REMARK  status: ('A' for Active; 'I' for Inactive)
ROOT
ATOM      1  C1   11 d         -11.736 207.270 110.826  0.00  0.00     0.055 A 
ATOM      2  N1   11 d         -13.050 207.269 110.527  0.00  0.00    -0.169 NA
ATOM      3  N2   11 d         -13.626 206.851 111.663  0.00  0.00    -0.197 N 
ATOM      4  C2   11 d         -12.725 206.592 112.653  0.00  0.00     0.158 A 
ATOM      5  N3   11 d         -13.241 206.159 113.852  0.00  0.00    -0.197 N 
ATOM      6  C3   11 d         -14.575 205.984 114.080  0.00  0.00     0.158 A 
ATOM      7  N4   11 d         -15.416 206.266 113.031  0.00  0.00    -0.197 N 
ATOM      8  C4   11 d         -14.984 206.701 111.811  0.00  0.00     0.158 A 
ATOM      9  C5   11 d         -16.080 206.880 111.018  0.00  0.00     0.081 A 
ATOM     10  C6   11 d         -17.162 206.517 111.873  0.00  0.00     0.055 A 
ATOM     11  N5   11 d         -16.748 206.144 113.100  0.00  0.00    -0.169 NA
ATOM     12  C7   11 d         -18.600 206.528 111.513  0.00  0.00     0.072 C 
ATOM     13  C8   11 d         -14.728 205.550 115.365  0.00  0.00     0.081 A 
ATOM     14  C9   11 d         -13.386 205.492 115.848  0.00  0.00     0.055 A 
ATOM     15  N6   11 d         -12.485 205.866 114.918  0.00  0.00    -0.169 NA
ATOM     16  C10  11 d         -12.966 205.076 117.207  0.00  0.00     0.072 C 
ATOM     17  C11  11 d         -11.477 206.848 112.164  0.00  0.00     0.081 A 
ATOM     18  C12  11 d         -10.634 207.654 109.912  0.00  0.00     0.072 C 
ENDROOT
TORSDOF 0
ENDMDL
