MODEL 1
REMARK VINA RESULT:      -8.6      0.000      0.000
REMARK  3 active torsions:
REMARK  status: ('A' for Active; 'I' for Inactive)
REMARK    1  A    between atoms: C7_8  and  S1_9 
REMARK    2  A    between atoms: S1_9  and  N1_12 
REMARK    3  A    between atoms: C10_15  and  N2_16 
ROOT
ATOM      1  C1   11 d         -12.505 207.659 113.381  0.00  0.00     0.012 A 
ATOM      2  C2   11 d         -11.191 208.062 113.279  0.00  0.00     0.011 A 
ATOM      3  C3   11 d         -10.894 208.622 114.510  0.00  0.00     0.089 A 
ATOM      4  O1   11 d         -11.913 208.588 115.337  0.00  0.00    -0.309 OA
ATOM      5  C4   11 d         -12.885 208.012 114.666  0.00  0.00     0.087 A 
ATOM      6  C5   11 d         -14.178 207.758 115.131  0.00  0.00     0.040 A 
ATOM      7  C6   11 d         -15.089 207.131 114.254  0.00  0.00     0.027 A 
ATOM      8  C7   11 d         -14.696 206.770 112.937  0.00  0.00     0.075 A 
ATOM      9  C8   11 d         -13.383 207.035 112.489  0.00  0.00     0.040 A 
ATOM     10  C9   11 d          -9.629 209.150 114.777  0.00  0.00     0.074 A 
ATOM     11  C10  11 d          -8.637 209.107 113.757  0.00  0.00     0.105 A 
ATOM     12  C11  11 d          -8.970 208.521 112.498  0.00  0.00     0.037 A 
ATOM     13  C12  11 d         -10.253 207.993 112.249  0.00  0.00     0.017 A 
ENDROOT
BRANCH   8  14
ATOM     14  S1   11 d         -15.855 205.976 111.818  0.00  0.00     0.239 S 
ATOM     15  O2   11 d         -15.295 204.619 111.384  0.00  0.00    -0.206 OA
ATOM     16  O3   11 d         -16.033 206.810 110.547  0.00  0.00    -0.206 OA
BRANCH  14  17
ATOM     17  N1   11 d         -17.421 205.728 112.553  0.00  0.00    -0.225 NA
ATOM     18  H3   11 d         -17.965 206.639 112.423  0.00  0.00     0.136 HD
ATOM     19  H4   11 d         -17.918 204.992 111.959  0.00  0.00     0.136 HD
ENDBRANCH  14  17
ENDBRANCH   8  14
BRANCH  11  20
ATOM     20  N2   11 d          -7.357 209.623 113.980  0.00  0.00    -0.116 N 
ATOM     21  O4   11 d          -7.186 210.440 114.764  0.00  0.00    -0.532 OA
ATOM     22  O5   11 d          -6.394 209.313 113.225  0.00  0.00    -0.532 OA
ENDBRANCH  11  20
TORSDOF 3
ENDMDL
MODEL 2
REMARK VINA RESULT:      -8.4      1.776      2.727
REMARK  3 active torsions:
REMARK  status: ('A' for Active; 'I' for Inactive)
REMARK    1  A    between atoms: C7_8  and  S1_9 
REMARK    2  A    between atoms: S1_9  and  N1_12 
REMARK    3  A    between atoms: C10_15  and  N2_16 
ROOT
ATOM      1  C1   11 d         -11.105 207.746 112.703  0.00  0.00     0.012 A 
ATOM      2  C2   11 d         -10.044 208.322 113.367  0.00  0.00     0.011 A 
ATOM      3  C3   11 d          -9.153 208.682 112.370  0.00  0.00     0.089 A 
ATOM      4  O1   11 d          -9.590 208.372 111.170  0.00  0.00    -0.309 OA
ATOM      5  C4   11 d         -10.761 207.808 111.363  0.00  0.00     0.087 A 
ATOM      6  C5   11 d         -11.611 207.305 110.375  0.00  0.00     0.040 A 
ATOM      7  C6   11 d         -12.834 206.728 110.783  0.00  0.00     0.027 A 
ATOM      8  C7   11 d         -13.184 206.665 112.158  0.00  0.00     0.075 A 
ATOM      9  C8   11 d         -12.310 207.183 113.138  0.00  0.00     0.040 A 
ATOM     10  C9   11 d          -7.939 209.301 112.674  0.00  0.00     0.074 A 
ATOM     11  C10  11 d          -7.622 209.560 114.037  0.00  0.00     0.105 A 
ATOM     12  C11  11 d          -8.561 209.181 115.046  0.00  0.00     0.037 A 
ATOM     13  C12  11 d          -9.782 208.557 114.717  0.00  0.00     0.017 A 
ENDROOT
BRANCH   8  14
ATOM     14  S1   11 d         -14.737 205.928 112.678  0.00  0.00     0.239 S 
ATOM     15  O2   11 d         -14.611 205.442 114.123  0.00  0.00    -0.206 OA
ATOM     16  O3   11 d         -15.064 204.701 111.823  0.00  0.00    -0.206 OA
BRANCH  14  17
ATOM     17  N1   11 d         -16.071 207.055 112.579  0.00  0.00    -0.225 NA
ATOM     18  H3   11 d         -16.786 206.743 113.309  0.00  0.00     0.136 HD
ATOM     19  H4   11 d         -15.691 207.997 112.910  0.00  0.00     0.136 HD
ENDBRANCH  14  17
ENDBRANCH   8  14
BRANCH  11  20
ATOM     20  N2   11 d          -6.419 210.178 114.388  0.00  0.00    -0.116 N 
ATOM     21  O4   11 d          -6.405 211.040 115.142  0.00  0.00    -0.532 OA
ATOM     22  O5   11 d          -5.350 209.908 113.775  0.00  0.00    -0.532 OA
ENDBRANCH  11  20
TORSDOF 3
ENDMDL
MODEL 3
REMARK VINA RESULT:      -8.4      2.398      7.009
REMARK  3 active torsions:
REMARK  status: ('A' for Active; 'I' for Inactive)
REMARK    1  A    between atoms: C7_8  and  S1_9 
REMARK    2  A    between atoms: S1_9  and  N1_12 
REMARK    3  A    between atoms: C10_15  and  N2_16 
ROOT
ATOM      1  C1   11 d         -11.202 207.946 113.504  0.00  0.00     0.012 A 
ATOM      2  C2   11 d         -12.351 207.435 112.941  0.00  0.00     0.011 A 
ATOM      3  C3   11 d         -13.308 207.531 113.937  0.00  0.00     0.089 A 
ATOM      4  O1   11 d         -12.832 208.055 115.043  0.00  0.00    -0.309 OA
ATOM      5  C4   11 d         -11.567 208.306 114.791  0.00  0.00     0.087 A 
ATOM      6  C5   11 d         -10.640 208.866 115.674  0.00  0.00     0.040 A 
ATOM      7  C6   11 d          -9.317 209.054 115.217  0.00  0.00     0.027 A 
ATOM      8  C7   11 d          -8.947 208.685 113.896  0.00  0.00     0.075 A 
ATOM      9  C8   11 d          -9.901 208.123 113.021  0.00  0.00     0.040 A 
ATOM     10  C9   11 d         -14.619 207.097 113.725  0.00  0.00     0.074 A 
ATOM     11  C10  11 d         -14.964 206.547 112.458  0.00  0.00     0.105 A 
ATOM     12  C11  11 d         -13.958 206.463 111.448  0.00  0.00     0.037 A 
ATOM     13  C12  11 d         -12.640 206.907 111.682  0.00  0.00     0.017 A 
ENDROOT
BRANCH   8  14
ATOM     14  S1   11 d          -7.263 208.920 113.315  0.00  0.00     0.239 S 
ATOM     15  O2   11 d          -6.356 207.858 113.940  0.00  0.00    -0.206 OA
ATOM     16  O3   11 d          -6.726 210.283 113.760  0.00  0.00    -0.206 OA
BRANCH  14  17
ATOM     17  N1   11 d          -7.143 208.808 111.574  0.00  0.00    -0.225 NA
ATOM     18  H3   11 d          -7.953 209.381 111.176  0.00  0.00     0.136 HD
ATOM     19  H4   11 d          -6.247 209.323 111.302  0.00  0.00     0.136 HD
ENDBRANCH  14  17
ENDBRANCH   8  14
BRANCH  11  20
ATOM     20  N2   11 d         -16.263 206.101 112.201  0.00  0.00    -0.116 N 
ATOM     21  O4   11 d         -16.707 206.175 111.147  0.00  0.00    -0.532 OA
ATOM     22  O5   11 d         -17.026 205.752 113.143  0.00  0.00    -0.532 OA
ENDBRANCH  11  20
TORSDOF 3
ENDMDL
MODEL 4
REMARK VINA RESULT:      -8.3      2.563      7.363
REMARK  3 active torsions:
REMARK  status: ('A' for Active; 'I' for Inactive)
REMARK    1  A    between atoms: C7_8  and  S1_9 
REMARK    2  A    between atoms: S1_9  and  N1_12 
REMARK    3  A    between atoms: C10_15  and  N2_16 
ROOT
ATOM      1  C1   11 d         -11.285 207.747 112.970  0.00  0.00     0.012 A 
ATOM      2  C2   11 d         -12.598 207.340 113.063  0.00  0.00     0.011 A 
ATOM      3  C3   11 d         -13.000 207.132 111.755  0.00  0.00     0.089 A 
ATOM      4  O1   11 d         -12.042 207.378 110.889  0.00  0.00    -0.309 OA
ATOM      5  C4   11 d         -11.009 207.749 111.613  0.00  0.00     0.087 A 
ATOM      6  C5   11 d          -9.751 208.119 111.132  0.00  0.00     0.040 A 
ATOM      7  C6   11 d          -8.765 208.494 112.071  0.00  0.00     0.027 A 
ATOM      8  C7   11 d          -9.051 208.491 113.463  0.00  0.00     0.075 A 
ATOM      9  C8   11 d         -10.329 208.110 113.925  0.00  0.00     0.040 A 
ATOM     10  C9   11 d         -14.297 206.710 111.454  0.00  0.00     0.074 A 
ATOM     11  C10  11 d         -15.213 206.494 112.522  0.00  0.00     0.105 A 
ATOM     12  C11  11 d         -14.771 206.712 113.863  0.00  0.00     0.037 A 
ATOM     13  C12  11 d         -13.457 207.139 114.144  0.00  0.00     0.017 A 
ENDROOT
BRANCH   8  14
ATOM     14  S1   11 d          -7.799 208.970 114.659  0.00  0.00     0.239 S 
ATOM     15  O2   11 d          -7.544 210.475 114.552  0.00  0.00    -0.206 OA
ATOM     16  O3   11 d          -6.471 208.271 114.358  0.00  0.00    -0.206 OA
BRANCH  14  17
ATOM     17  N1   11 d          -8.274 208.596 116.300  0.00  0.00    -0.225 NA
ATOM     18  H3   11 d          -7.734 207.717 116.579  0.00  0.00     0.136 HD
ATOM     19  H4   11 d          -7.896 209.388 116.908  0.00  0.00     0.136 HD
ENDBRANCH  14  17
ENDBRANCH   8  14
BRANCH  11  20
ATOM     20  N2   11 d         -16.520 206.070 112.269  0.00  0.00    -0.116 N 
ATOM     21  O4   11 d         -16.972 206.165 111.221  0.00  0.00    -0.532 OA
ATOM     22  O5   11 d         -17.280 205.717 113.214  0.00  0.00    -0.532 OA
ENDBRANCH  11  20
TORSDOF 3
ENDMDL
MODEL 5
REMARK VINA RESULT:      -8.0      3.056      7.547
REMARK  3 active torsions:
REMARK  status: ('A' for Active; 'I' for Inactive)
REMARK    1  A    between atoms: C7_8  and  S1_9 
REMARK    2  A    between atoms: S1_9  and  N1_12 
REMARK    3  A    between atoms: C10_15  and  N2_16 
ROOT
ATOM      1  C1   11 d          -9.953 208.487 114.103  0.00  0.00     0.012 A 
ATOM      2  C2   11 d         -11.245 208.080 114.358  0.00  0.00     0.011 A 
ATOM      3  C3   11 d         -11.758 207.728 113.122  0.00  0.00     0.089 A 
ATOM      4  O1   11 d         -10.887 207.889 112.151  0.00  0.00    -0.309 OA
ATOM      5  C4   11 d          -9.801 208.346 112.734  0.00  0.00     0.087 A 
ATOM      6  C5   11 d          -8.598 208.674 112.104  0.00  0.00     0.040 A 
ATOM      7  C6   11 d          -7.540 209.158 112.903  0.00  0.00     0.027 A 
ATOM      8  C7   11 d          -7.699 209.302 114.307  0.00  0.00     0.075 A 
ATOM      9  C8   11 d          -8.923 208.961 114.923  0.00  0.00     0.040 A 
ATOM     10  C9   11 d         -13.068 207.263 112.988  0.00  0.00     0.074 A 
ATOM     11  C10  11 d         -13.880 207.155 114.152  0.00  0.00     0.105 A 
ATOM     12  C11  11 d         -13.325 207.521 115.416  0.00  0.00     0.037 A 
ATOM     13  C12  11 d         -11.999 207.989 115.528  0.00  0.00     0.017 A 
ENDROOT
BRANCH   8  14
ATOM     14  S1   11 d          -6.355 209.920 115.326  0.00  0.00     0.239 S 
ATOM     15  O2   11 d          -6.297 211.445 115.220  0.00  0.00    -0.206 OA
ATOM     16  O3   11 d          -5.011 209.387 114.825  0.00  0.00    -0.206 OA
BRANCH  14  17
ATOM     17  N1   11 d          -6.543 209.480 117.008  0.00  0.00    -0.225 NA
ATOM     18  H3   11 d          -6.706 210.391 117.544  0.00  0.00     0.136 HD
ATOM     19  H4   11 d          -7.453 208.925 117.072  0.00  0.00     0.136 HD
ENDBRANCH  14  17
ENDBRANCH   8  14
BRANCH  11  20
ATOM     20  N2   11 d         -15.197 206.693 114.066  0.00  0.00    -0.116 N 
ATOM     21  O4   11 d         -15.946 207.195 113.360  0.00  0.00    -0.532 OA
ATOM     22  O5   11 d         -15.630 205.820 114.868  0.00  0.00    -0.532 OA
ENDBRANCH  11  20
TORSDOF 3
ENDMDL
MODEL 6
REMARK VINA RESULT:      -7.4      3.284      7.272
REMARK  3 active torsions:
REMARK  status: ('A' for Active; 'I' for Inactive)
REMARK    1  A    between atoms: C7_8  and  S1_9 
REMARK    2  A    between atoms: S1_9  and  N1_12 
REMARK    3  A    between atoms: C10_15  and  N2_16 
ROOT
ATOM      1  C1   11 d         -12.171 207.395 115.280  0.00  0.00     0.012 A 
ATOM      2  C2   11 d         -13.336 207.009 114.653  0.00  0.00     0.011 A 
ATOM      3  C3   11 d         -13.208 207.466 113.352  0.00  0.00     0.089 A 
ATOM      4  O1   11 d         -12.069 208.089 113.148  0.00  0.00    -0.309 OA
ATOM      5  C4   11 d         -11.443 208.052 114.303  0.00  0.00     0.087 A 
ATOM      6  C5   11 d         -10.185 208.594 114.582  0.00  0.00     0.040 A 
ATOM      7  C6   11 d          -9.678 208.455 115.892  0.00  0.00     0.027 A 
ATOM      8  C7   11 d         -10.428 207.781 116.893  0.00  0.00     0.075 A 
ATOM      9  C8   11 d         -11.695 207.238 116.586  0.00  0.00     0.040 A 
ATOM     10  C9   11 d         -14.216 207.257 112.409  0.00  0.00     0.074 A 
ATOM     11  C10  11 d         -15.393 206.561 112.805  0.00  0.00     0.105 A 
ATOM     12  C11  11 d         -15.498 206.097 114.152  0.00  0.00     0.037 A 
ATOM     13  C12  11 d         -14.467 206.319 115.089  0.00  0.00     0.017 A 
ENDROOT
BRANCH   8  14
ATOM     14  S1   11 d          -9.786 207.606 118.561  0.00  0.00     0.239 S 
ATOM     15  O2   11 d          -8.433 206.895 118.514  0.00  0.00    -0.206 OA
ATOM     16  O3   11 d         -10.718 206.734 119.407  0.00  0.00    -0.206 OA
BRANCH  14  17
ATOM     17  N1   11 d          -9.583 209.150 119.357  0.00  0.00    -0.225 NA
ATOM     18  H3   11 d          -9.838 208.998 120.384  0.00  0.00     0.136 HD
ATOM     19  H4   11 d          -8.536 209.362 119.333  0.00  0.00     0.136 HD
ENDBRANCH  14  17
ENDBRANCH   8  14
BRANCH  11  20
ATOM     20  N2   11 d         -16.428 206.328 111.895  0.00  0.00    -0.116 N 
ATOM     21  O4   11 d         -16.265 206.489 110.773  0.00  0.00    -0.532 OA
ATOM     22  O5   11 d         -17.599 206.084 112.296  0.00  0.00    -0.532 OA
ENDBRANCH  11  20
TORSDOF 3
ENDMDL
MODEL 7
REMARK VINA RESULT:      -7.3      3.735      6.828
REMARK  3 active torsions:
REMARK  status: ('A' for Active; 'I' for Inactive)
REMARK    1  A    between atoms: C7_8  and  S1_9 
REMARK    2  A    between atoms: S1_9  and  N1_12 
REMARK    3  A    between atoms: C10_15  and  N2_16 
ROOT
ATOM      1  C1   11 d         -11.577 207.149 114.685  0.00  0.00     0.012 A 
ATOM      2  C2   11 d         -12.130 206.706 115.867  0.00  0.00     0.011 A 
ATOM      3  C3   11 d         -13.154 205.857 115.485  0.00  0.00     0.089 A 
ATOM      4  O1   11 d         -13.260 205.753 114.180  0.00  0.00    -0.309 OA
ATOM      5  C4   11 d         -12.318 206.528 113.693  0.00  0.00     0.087 A 
ATOM      6  C5   11 d         -12.040 206.748 112.341  0.00  0.00     0.040 A 
ATOM      7  C6   11 d         -10.983 207.625 112.014  0.00  0.00     0.027 A 
ATOM      8  C7   11 d         -10.226 208.261 113.034  0.00  0.00     0.075 A 
ATOM      9  C8   11 d         -10.523 208.021 114.394  0.00  0.00     0.040 A 
ATOM     10  C9   11 d         -13.952 205.213 116.433  0.00  0.00     0.074 A 
ATOM     11  C10  11 d         -13.698 205.443 117.815  0.00  0.00     0.105 A 
ATOM     12  C11  11 d         -12.633 206.322 118.181  0.00  0.00     0.037 A 
ATOM     13  C12  11 d         -11.839 206.962 117.208  0.00  0.00     0.017 A 
ENDROOT
BRANCH   8  14
ATOM     14  S1   11 d          -8.883 209.380 112.620  0.00  0.00     0.239 S 
ATOM     15  O2   11 d          -7.729 208.584 112.007  0.00  0.00    -0.206 OA
ATOM     16  O3   11 d          -8.338 210.055 113.881  0.00  0.00    -0.206 OA
BRANCH  14  17
ATOM     17  N1   11 d          -9.378 210.617 111.487  0.00  0.00    -0.225 NA
ATOM     18  H3   11 d          -9.627 211.478 112.068  0.00  0.00     0.136 HD
ATOM     19  H4   11 d          -8.506 210.873 110.926  0.00  0.00     0.136 HD
ENDBRANCH  14  17
ENDBRANCH   8  14
BRANCH  11  20
ATOM     20  N2   11 d         -14.470 204.820 118.799  0.00  0.00    -0.116 N 
ATOM     21  O4   11 d         -15.014 203.837 118.577  0.00  0.00    -0.532 OA
ATOM     22  O5   11 d         -14.709 205.397 119.896  0.00  0.00    -0.532 OA
ENDBRANCH  11  20
TORSDOF 3
ENDMDL
MODEL 8
REMARK VINA RESULT:      -7.2      2.592      3.778
REMARK  3 active torsions:
REMARK  status: ('A' for Active; 'I' for Inactive)
REMARK    1  A    between atoms: C7_8  and  S1_9 
REMARK    2  A    between atoms: S1_9  and  N1_12 
REMARK    3  A    between atoms: C10_15  and  N2_16 
ROOT
ATOM      1  C1   11 d          -9.879 208.373 113.672  0.00  0.00     0.012 A 
ATOM      2  C2   11 d          -8.630 208.772 114.095  0.00  0.00     0.011 A 
ATOM      3  C3   11 d          -7.844 208.747 112.956  0.00  0.00     0.089 A 
ATOM      4  O1   11 d          -8.514 208.369 111.890  0.00  0.00    -0.309 OA
ATOM      5  C4   11 d          -9.737 208.141 112.314  0.00  0.00     0.087 A 
ATOM      6  C5   11 d         -10.816 207.711 111.538  0.00  0.00     0.040 A 
ATOM      7  C6   11 d         -12.059 207.516 112.179  0.00  0.00     0.027 A 
ATOM      8  C7   11 d         -12.202 207.754 113.572  0.00  0.00     0.075 A 
ATOM      9  C8   11 d         -11.098 208.191 114.335  0.00  0.00     0.040 A 
ATOM     10  C9   11 d          -6.492 209.094 113.002  0.00  0.00     0.074 A 
ATOM     11  C10  11 d          -5.924 209.478 114.249  0.00  0.00     0.105 A 
ATOM     12  C11  11 d          -6.759 209.498 115.408  0.00  0.00     0.037 A 
ATOM     13  C12  11 d          -8.122 209.144 115.340  0.00  0.00     0.017 A 
ENDROOT
BRANCH   8  14
ATOM     14  S1   11 d         -13.781 207.503 114.390  0.00  0.00     0.239 S 
ATOM     15  O2   11 d         -14.183 208.784 115.125  0.00  0.00    -0.206 OA
ATOM     16  O3   11 d         -13.671 206.400 115.445  0.00  0.00    -0.206 OA
BRANCH  14  17
ATOM     17  N1   11 d         -15.050 207.080 113.263  0.00  0.00    -0.225 NA
ATOM     18  H3   11 d         -14.810 207.562 112.340  0.00  0.00     0.136 HD
ATOM     19  H4   11 d         -14.958 206.030 113.090  0.00  0.00     0.136 HD
ENDBRANCH  14  17
ENDBRANCH   8  14
BRANCH  11  20
ATOM     20  N2   11 d          -4.576 209.835 114.343  0.00  0.00    -0.116 N 
ATOM     21  O4   11 d          -4.055 210.378 113.480  0.00  0.00    -0.532 OA
ATOM     22  O5   11 d          -3.867 209.436 115.308  0.00  0.00    -0.532 OA
ENDBRANCH  11  20
TORSDOF 3
ENDMDL
MODEL 9
REMARK VINA RESULT:      -7.2      4.036      6.386
REMARK  3 active torsions:
REMARK  status: ('A' for Active; 'I' for Inactive)
REMARK    1  A    between atoms: C7_8  and  S1_9 
REMARK    2  A    between atoms: S1_9  and  N1_12 
REMARK    3  A    between atoms: C10_15  and  N2_16 
ROOT
ATOM      1  C1   11 d         -13.592 206.423 115.676  0.00  0.00     0.012 A 
ATOM      2  C2   11 d         -14.063 206.599 114.394  0.00  0.00     0.011 A 
ATOM      3  C3   11 d         -12.928 206.701 113.608  0.00  0.00     0.089 A 
ATOM      4  O1   11 d         -11.821 206.599 114.308  0.00  0.00    -0.309 OA
ATOM      5  C4   11 d         -12.212 206.434 115.551  0.00  0.00     0.087 A 
ATOM      6  C5   11 d         -11.385 206.282 116.667  0.00  0.00     0.040 A 
ATOM      7  C6   11 d         -11.997 206.119 117.930  0.00  0.00     0.027 A 
ATOM      8  C7   11 d         -13.412 206.108 118.054  0.00  0.00     0.075 A 
ATOM      9  C8   11 d         -14.227 206.260 116.912  0.00  0.00     0.040 A 
ATOM     10  C9   11 d         -13.019 206.893 112.227  0.00  0.00     0.074 A 
ATOM     11  C10  11 d         -14.307 206.986 111.630  0.00  0.00     0.105 A 
ATOM     12  C11  11 d         -15.462 206.874 112.464  0.00  0.00     0.037 A 
ATOM     13  C12  11 d         -15.348 206.680 113.856  0.00  0.00     0.017 A 
ENDROOT
BRANCH   8  14
ATOM     14  S1   11 d         -14.191 205.905 119.660  0.00  0.00     0.239 S 
ATOM     15  O2   11 d         -13.116 205.875 120.748  0.00  0.00    -0.206 OA
ATOM     16  O3   11 d         -14.934 204.568 119.732  0.00  0.00    -0.206 OA
BRANCH  14  17
ATOM     17  N1   11 d         -15.317 207.194 120.017  0.00  0.00    -0.225 NA
ATOM     18  H3   11 d         -15.395 207.784 119.129  0.00  0.00     0.136 HD
ATOM     19  H4   11 d         -16.269 206.730 120.156  0.00  0.00     0.136 HD
ENDBRANCH  14  17
ENDBRANCH   8  14
BRANCH  11  20
ATOM     20  N2   11 d         -14.446 207.177 110.252  0.00  0.00    -0.116 N 
ATOM     21  O4   11 d         -15.479 207.129 109.758  0.00  0.00    -0.532 OA
ATOM     22  O5   11 d         -13.433 207.253 109.504  0.00  0.00    -0.532 OA
ENDBRANCH  11  20
TORSDOF 3
ENDMDL
MODEL 10
REMARK VINA RESULT:      -7.2      3.960      5.318
REMARK  3 active torsions:
REMARK  status: ('A' for Active; 'I' for Inactive)
REMARK    1  A    between atoms: C7_8  and  S1_9 
REMARK    2  A    between atoms: S1_9  and  N1_12 
REMARK    3  A    between atoms: C10_15  and  N2_16 
ROOT
ATOM      1  C1   11 d         -12.954 206.352 115.031  0.00  0.00     0.012 A 
ATOM      2  C2   11 d         -12.288 206.835 113.925  0.00  0.00     0.011 A 
ATOM      3  C3   11 d         -13.042 206.414 112.843  0.00  0.00     0.089 A 
ATOM      4  O1   11 d         -14.099 205.723 113.205  0.00  0.00    -0.309 OA
ATOM      5  C4   11 d         -14.052 205.680 114.518  0.00  0.00     0.087 A 
ATOM      6  C5   11 d         -14.968 205.046 115.360  0.00  0.00     0.040 A 
ATOM      7  C6   11 d         -14.743 205.108 116.753  0.00  0.00     0.027 A 
ATOM      8  C7   11 d         -13.617 205.797 117.276  0.00  0.00     0.075 A 
ATOM      9  C8   11 d         -12.705 206.432 116.405  0.00  0.00     0.040 A 
ATOM     10  C9   11 d         -12.663 206.721 111.534  0.00  0.00     0.074 A 
ATOM     11  C10  11 d         -11.478 207.480 111.323  0.00  0.00     0.105 A 
ATOM     12  C11  11 d         -10.721 207.905 112.457  0.00  0.00     0.037 A 
ATOM     13  C12  11 d         -11.121 207.584 113.771  0.00  0.00     0.017 A 
ENDROOT
BRANCH   8  14
ATOM     14  S1   11 d         -13.326 205.873 119.047  0.00  0.00     0.239 S 
ATOM     15  O2   11 d         -14.265 204.897 119.759  0.00  0.00    -0.206 OA
ATOM     16  O3   11 d         -13.646 207.270 119.585  0.00  0.00    -0.206 OA
BRANCH  14  17
ATOM     17  N1   11 d         -11.676 205.472 119.465  0.00  0.00    -0.225 NA
ATOM     18  H3   11 d         -11.728 204.680 120.180  0.00  0.00     0.136 HD
ATOM     19  H4   11 d         -11.237 205.056 118.584  0.00  0.00     0.136 HD
ENDBRANCH  14  17
ENDBRANCH   8  14
BRANCH  11  20
ATOM     20  N2   11 d         -11.061 207.812 110.031  0.00  0.00    -0.116 N 
ATOM     21  O4   11 d         -11.683 207.504 109.120  0.00  0.00    -0.532 OA
ATOM     22  O5   11 d          -9.923 208.320 109.829  0.00  0.00    -0.532 OA
ENDBRANCH  11  20
TORSDOF 3
ENDMDL
