MODEL 1
REMARK VINA RESULT:      -9.5      0.000      0.000
REMARK  3 active torsions:
REMARK  status: ('A' for Active; 'I' for Inactive)
REMARK    1  A    between atoms: C1_1  and  N4_25 
REMARK    2  A    between atoms: C2_2  and  N3_14 
REMARK    3  A    between atoms: N3_14  and  C12_15 
ROOT
ATOM      1  C1   11 d         -10.258 208.457 113.734  0.00  0.00     0.129 A 
ATOM      2  C2   11 d         -11.352 207.545 113.764  0.00  0.00     0.064 A 
ATOM      3  C3   11 d         -11.845 207.109 115.015  0.00  0.00     0.061 A 
ATOM      4  C4   11 d         -11.344 207.625 116.227  0.00  0.00     0.032 A 
ATOM      5  N1   11 d         -11.914 207.263 117.453  0.00  0.00    -0.378 N 
ATOM      6  C5   11 d         -11.095 206.864 118.549  0.00  0.00     0.150 C 
ATOM      7  C6   11 d         -11.559 205.504 119.092  0.00  0.00     0.254 C 
ATOM      8  N2   11 d         -13.043 205.435 119.324  0.00  0.00    -0.072 N 
ATOM      9  C7   11 d         -13.807 205.912 118.121  0.00  0.00     0.254 C 
ATOM     10  C8   11 d         -13.327 207.283 117.629  0.00  0.00     0.150 C 
ATOM     11  C9   11 d         -13.461 206.133 120.583  0.00  0.00     0.269 C 
ATOM     12  C10  11 d         -10.276 208.540 116.179  0.00  0.00     0.032 A 
ATOM     13  C11  11 d          -9.730 208.935 114.951  0.00  0.00     0.040 A 
ATOM     14  H6   11 d         -13.290 204.396 119.460  0.00  0.00     0.279 HD
ENDROOT
BRANCH   2  15
ATOM     15  N3   11 d         -11.923 207.079 112.576  0.00  0.00    -0.383 N 
ATOM     16  H16  11 d         -11.520 207.395 111.721  0.00  0.00     0.160 HD
BRANCH  15  17
ATOM     17  C12  11 d         -13.051 206.204 112.505  0.00  0.00     0.090 C 
ATOM     18  C13  11 d         -13.377 205.786 111.035  0.00  0.00     0.009 C 
ATOM     19  C14  11 d         -13.875 207.007 110.215  0.00  0.00     0.011 C 
ATOM     20  C20  11 d         -14.487 204.703 111.034  0.00  0.00     0.011 C 
ATOM     21  C15  11 d         -15.155 207.584 110.862  0.00  0.00    -0.013 C 
ATOM     22  C16  11 d         -14.848 208.016 112.315  0.00  0.00     0.011 C 
ATOM     23  C21  11 d         -16.258 206.499 110.871  0.00  0.00     0.009 C 
ATOM     24  C17  11 d         -14.360 206.792 113.129  0.00  0.00     0.009 C 
ATOM     25  C18  11 d         -15.466 205.708 113.133  0.00  0.00     0.011 C 
ATOM     26  C19  11 d         -15.772 205.272 111.681  0.00  0.00    -0.013 C 
ENDBRANCH  15  17
ENDBRANCH   2  15
BRANCH   1  27
ATOM     27  N4   11 d          -9.713 208.902 112.535  0.00  0.00    -0.113 N 
ATOM     28  O1   11 d          -9.117 209.880 112.527  0.00  0.00    -0.532 OA
ATOM     29  O2   11 d          -9.499 208.078 111.604  0.00  0.00    -0.532 OA
ENDBRANCH   1  27
TORSDOF 3
ENDMDL
MODEL 2
REMARK VINA RESULT:      -9.5      2.061      3.049
REMARK  3 active torsions:
REMARK  status: ('A' for Active; 'I' for Inactive)
REMARK    1  A    between atoms: C1_1  and  N4_25 
REMARK    2  A    between atoms: C2_2  and  N3_14 
REMARK    3  A    between atoms: N3_14  and  C12_15 
ROOT
ATOM      1  C1   11 d         -10.199 208.235 111.779  0.00  0.00     0.129 A 
ATOM      2  C2   11 d         -10.993 207.500 112.706  0.00  0.00     0.064 A 
ATOM      3  C3   11 d         -10.690 207.586 114.084  0.00  0.00     0.061 A 
ATOM      4  C4   11 d          -9.687 208.449 114.568  0.00  0.00     0.032 A 
ATOM      5  N1   11 d          -9.470 208.601 115.943  0.00  0.00    -0.378 N 
ATOM      6  C5   11 d          -8.155 208.543 116.485  0.00  0.00     0.150 C 
ATOM      7  C6   11 d          -8.094 207.515 117.624  0.00  0.00     0.254 C 
ATOM      8  N2   11 d          -9.208 207.672 118.623  0.00  0.00    -0.072 N 
ATOM      9  C7   11 d         -10.544 207.760 117.941  0.00  0.00     0.254 C 
ATOM     10  C8   11 d         -10.565 208.815 116.829  0.00  0.00     0.150 C 
ATOM     11  C9   11 d          -8.971 208.808 119.572  0.00  0.00     0.269 C 
ATOM     12  C10  11 d          -8.926 209.183 113.640  0.00  0.00     0.032 A 
ATOM     13  C11  11 d          -9.166 209.062 112.266  0.00  0.00     0.040 A 
ATOM     14  H6   11 d          -9.220 206.778 119.221  0.00  0.00     0.279 HD
ENDROOT
BRANCH   2  15
ATOM     15  N3   11 d         -12.047 206.698 112.260  0.00  0.00    -0.383 N 
ATOM     16  H16  11 d         -11.850 205.737 112.089  0.00  0.00     0.160 HD
BRANCH  15  17
ATOM     17  C12  11 d         -13.376 207.166 112.014  0.00  0.00     0.090 C 
ATOM     18  C13  11 d         -14.346 206.822 113.191  0.00  0.00     0.009 C 
ATOM     19  C14  11 d         -14.566 205.288 113.289  0.00  0.00     0.011 C 
ATOM     20  C20  11 d         -15.718 207.505 112.953  0.00  0.00     0.011 C 
ATOM     21  C15  11 d         -15.179 204.762 111.972  0.00  0.00    -0.013 C 
ATOM     22  C16  11 d         -14.226 205.082 110.797  0.00  0.00     0.011 C 
ATOM     23  C21  11 d         -16.542 205.453 111.730  0.00  0.00     0.009 C 
ATOM     24  C17  11 d         -14.018 206.614 110.698  0.00  0.00     0.009 C 
ATOM     25  C18  11 d         -15.385 207.300 110.459  0.00  0.00     0.011 C 
ATOM     26  C19  11 d         -16.339 206.985 111.635  0.00  0.00    -0.013 C 
ENDBRANCH  15  17
ENDBRANCH   2  15
BRANCH   1  27
ATOM     27  N4   11 d         -10.432 208.172 110.410  0.00  0.00    -0.113 N 
ATOM     28  O1   11 d         -10.577 207.148 109.919  0.00  0.00    -0.532 OA
ATOM     29  O2   11 d         -10.899 209.180 109.811  0.00  0.00    -0.532 OA
ENDBRANCH   1  27
TORSDOF 3
ENDMDL
MODEL 3
REMARK VINA RESULT:      -9.2      2.941      6.021
REMARK  3 active torsions:
REMARK  status: ('A' for Active; 'I' for Inactive)
REMARK    1  A    between atoms: C1_1  and  N4_25 
REMARK    2  A    between atoms: C2_2  and  N3_14 
REMARK    3  A    between atoms: N3_14  and  C12_15 
ROOT
ATOM      1  C1   11 d         -11.812 207.211 111.438  0.00  0.00     0.129 A 
ATOM      2  C2   11 d         -11.518 207.173 112.830  0.00  0.00     0.064 A 
ATOM      3  C3   11 d         -10.278 207.680 113.282  0.00  0.00     0.061 A 
ATOM      4  C4   11 d          -9.371 208.304 112.403  0.00  0.00     0.032 A 
ATOM      5  N1   11 d          -8.196 208.895 112.882  0.00  0.00    -0.378 N 
ATOM      6  C5   11 d          -6.943 208.642 112.254  0.00  0.00     0.150 C 
ATOM      7  C6   11 d          -5.914 208.164 113.289  0.00  0.00     0.254 C 
ATOM      8  N2   11 d          -5.867 209.029 114.518  0.00  0.00    -0.072 N 
ATOM      9  C7   11 d          -7.244 209.261 115.077  0.00  0.00     0.254 C 
ATOM     10  C8   11 d          -8.229 209.760 114.013  0.00  0.00     0.150 C 
ATOM     11  C9   11 d          -5.116 210.307 114.293  0.00  0.00     0.269 C 
ATOM     12  C10  11 d          -9.686 208.351 111.033  0.00  0.00     0.032 A 
ATOM     13  C11  11 d         -10.879 207.796 110.556  0.00  0.00     0.040 A 
ATOM     14  H6   11 d          -5.315 208.484 115.264  0.00  0.00     0.279 HD
ENDROOT
BRANCH   2  15
ATOM     15  N3   11 d         -12.436 206.633 113.737  0.00  0.00    -0.383 N 
ATOM     16  H16  11 d         -12.920 205.808 113.459  0.00  0.00     0.160 HD
BRANCH  15  17
ATOM     17  C12  11 d         -12.739 207.193 115.016  0.00  0.00     0.090 C 
ATOM     18  C13  11 d         -11.835 206.601 116.146  0.00  0.00     0.009 C 
ATOM     19  C14  11 d         -12.158 205.100 116.375  0.00  0.00     0.011 C 
ATOM     20  C20  11 d         -12.083 207.369 117.470  0.00  0.00     0.011 C 
ATOM     21  C15  11 d         -13.638 204.941 116.791  0.00  0.00    -0.013 C 
ATOM     22  C16  11 d         -14.549 205.511 115.679  0.00  0.00     0.011 C 
ATOM     23  C21  11 d         -13.886 205.717 118.106  0.00  0.00     0.009 C 
ATOM     24  C17  11 d         -14.228 207.010 115.461  0.00  0.00     0.009 C 
ATOM     25  C18  11 d         -14.476 207.782 116.780  0.00  0.00     0.011 C 
ATOM     26  C19  11 d         -13.563 207.217 117.893  0.00  0.00    -0.013 C 
ENDBRANCH  15  17
ENDBRANCH   2  15
BRANCH   1  27
ATOM     27  N4   11 d         -13.003 206.705 110.930  0.00  0.00    -0.113 N 
ATOM     28  O1   11 d         -13.384 207.092 109.922  0.00  0.00    -0.532 OA
ATOM     29  O2   11 d         -13.417 205.578 111.319  0.00  0.00    -0.532 OA
ENDBRANCH   1  27
TORSDOF 3
ENDMDL
MODEL 4
REMARK VINA RESULT:      -8.9      3.282      5.785
REMARK  3 active torsions:
REMARK  status: ('A' for Active; 'I' for Inactive)
REMARK    1  A    between atoms: C1_1  and  N4_25 
REMARK    2  A    between atoms: C2_2  and  N3_14 
REMARK    3  A    between atoms: N3_14  and  C12_15 
ROOT
ATOM      1  C1   11 d         -10.797 207.605 117.850  0.00  0.00     0.129 A 
ATOM      2  C2   11 d         -10.848 208.276 116.595  0.00  0.00     0.064 A 
ATOM      3  C3   11 d          -9.639 208.694 115.993  0.00  0.00     0.061 A 
ATOM      4  C4   11 d          -8.386 208.382 116.558  0.00  0.00     0.032 A 
ATOM      5  N1   11 d          -7.197 208.711 115.897  0.00  0.00    -0.378 N 
ATOM      6  C5   11 d          -6.128 209.347 116.590  0.00  0.00     0.150 C 
ATOM      7  C6   11 d          -5.696 210.621 115.849  0.00  0.00     0.254 C 
ATOM      8  N2   11 d          -5.484 210.405 114.376  0.00  0.00    -0.072 N 
ATOM      9  C7   11 d          -6.653 209.695 113.754  0.00  0.00     0.254 C 
ATOM     10  C8   11 d          -7.032 208.417 114.512  0.00  0.00     0.150 C 
ATOM     11  C9   11 d          -4.178 209.732 114.077  0.00  0.00     0.269 C 
ATOM     12  C10  11 d          -8.354 207.701 117.789  0.00  0.00     0.032 A 
ATOM     13  C11  11 d          -9.542 207.336 118.433  0.00  0.00     0.040 A 
ATOM     14  H6   11 d          -5.431 211.378 113.921  0.00  0.00     0.279 HD
ENDROOT
BRANCH   2  15
ATOM     15  N3   11 d         -12.073 208.527 115.971  0.00  0.00    -0.383 N 
ATOM     16  H16  11 d         -12.754 209.038 116.489  0.00  0.00     0.160 HD
BRANCH  15  17
ATOM     17  C12  11 d         -12.422 208.084 114.657  0.00  0.00     0.090 C 
ATOM     18  C13  11 d         -13.950 208.244 114.370  0.00  0.00     0.009 C 
ATOM     19  C14  11 d         -14.779 207.276 115.258  0.00  0.00     0.011 C 
ATOM     20  C20  11 d         -14.239 207.920 112.882  0.00  0.00     0.011 C 
ATOM     21  C15  11 d         -14.369 205.815 114.962  0.00  0.00    -0.013 C 
ATOM     22  C16  11 d         -12.861 205.635 115.252  0.00  0.00     0.011 C 
ATOM     23  C21  11 d         -14.647 205.497 113.473  0.00  0.00     0.009 C 
ATOM     24  C17  11 d         -12.040 206.596 114.358  0.00  0.00     0.009 C 
ATOM     25  C18  11 d         -12.324 206.276 112.869  0.00  0.00     0.011 C 
ATOM     26  C19  11 d         -13.831 206.460 112.576  0.00  0.00    -0.013 C 
ENDBRANCH  15  17
ENDBRANCH   2  15
BRANCH   1  27
ATOM     27  N4   11 d         -11.953 207.192 118.503  0.00  0.00    -0.113 N 
ATOM     28  O1   11 d         -11.882 206.351 119.277  0.00  0.00    -0.532 OA
ATOM     29  O2   11 d         -12.939 207.976 118.578  0.00  0.00    -0.532 OA
ENDBRANCH   1  27
TORSDOF 3
ENDMDL
MODEL 5
REMARK VINA RESULT:      -8.9      2.924      5.198
REMARK  3 active torsions:
REMARK  status: ('A' for Active; 'I' for Inactive)
REMARK    1  A    between atoms: C1_1  and  N4_25 
REMARK    2  A    between atoms: C2_2  and  N3_14 
REMARK    3  A    between atoms: N3_14  and  C12_15 
ROOT
ATOM      1  C1   11 d          -9.847 208.202 111.592  0.00  0.00     0.129 A 
ATOM      2  C2   11 d         -10.125 208.293 112.986  0.00  0.00     0.064 A 
ATOM      3  C3   11 d          -9.047 208.420 113.891  0.00  0.00     0.061 A 
ATOM      4  C4   11 d          -7.718 208.554 113.443  0.00  0.00     0.032 A 
ATOM      5  N1   11 d          -6.674 208.786 114.347  0.00  0.00    -0.378 N 
ATOM      6  C5   11 d          -5.468 208.030 114.278  0.00  0.00     0.150 C 
ATOM      7  C6   11 d          -5.151 207.408 115.646  0.00  0.00     0.254 C 
ATOM      8  N2   11 d          -5.244 208.393 116.779  0.00  0.00    -0.072 N 
ATOM      9  C7   11 d          -6.536 209.159 116.734  0.00  0.00     0.254 C 
ATOM     10  C8   11 d          -6.798 209.782 115.357  0.00  0.00     0.150 C 
ATOM     11  C9   11 d          -4.046 209.291 116.858  0.00  0.00     0.269 C 
ATOM     12  C10  11 d          -7.463 208.483 112.062  0.00  0.00     0.032 A 
ATOM     13  C11  11 d          -8.510 208.291 111.152  0.00  0.00     0.040 A 
ATOM     14  H6   11 d          -5.251 207.821 117.691  0.00  0.00     0.279 HD
ENDROOT
BRANCH   2  15
ATOM     15  N3   11 d         -11.442 208.245 113.454  0.00  0.00    -0.383 N 
ATOM     16  H16  11 d         -12.141 208.681 112.894  0.00  0.00     0.160 HD
BRANCH  15  17
ATOM     17  C12  11 d         -11.846 207.636 114.682  0.00  0.00     0.090 C 
ATOM     18  C13  11 d         -12.019 206.089 114.540  0.00  0.00     0.009 C 
ATOM     19  C14  11 d         -13.220 205.754 113.614  0.00  0.00     0.011 C 
ATOM     20  C20  11 d         -12.280 205.462 115.935  0.00  0.00     0.011 C 
ATOM     21  C15  11 d         -14.519 206.346 114.207  0.00  0.00    -0.013 C 
ATOM     22  C16  11 d         -14.370 207.879 114.343  0.00  0.00     0.011 C 
ATOM     23  C21  11 d         -14.771 205.729 115.603  0.00  0.00     0.009 C 
ATOM     24  C17  11 d         -13.177 208.206 115.275  0.00  0.00     0.009 C 
ATOM     25  C18  11 d         -13.433 207.584 116.669  0.00  0.00     0.011 C 
ATOM     26  C19  11 d         -13.578 206.050 116.537  0.00  0.00    -0.013 C 
ENDBRANCH  15  17
ENDBRANCH   2  15
BRANCH   1  27
ATOM     27  N4   11 d         -10.863 208.051 110.655  0.00  0.00    -0.113 N 
ATOM     28  O1   11 d         -10.691 208.424 109.586  0.00  0.00    -0.532 OA
ATOM     29  O2   11 d         -11.745 207.166 110.831  0.00  0.00    -0.532 OA
ENDBRANCH   1  27
TORSDOF 3
ENDMDL
MODEL 6
REMARK VINA RESULT:      -8.2      3.009      6.877
REMARK  3 active torsions:
REMARK  status: ('A' for Active; 'I' for Inactive)
REMARK    1  A    between atoms: C1_1  and  N4_25 
REMARK    2  A    between atoms: C2_2  and  N3_14 
REMARK    3  A    between atoms: N3_14  and  C12_15 
ROOT
ATOM      1  C1   11 d          -9.725 208.522 113.185  0.00  0.00     0.129 A 
ATOM      2  C2   11 d          -9.416 208.740 114.558  0.00  0.00     0.064 A 
ATOM      3  C3   11 d         -10.272 208.202 115.545  0.00  0.00     0.061 A 
ATOM      4  C4   11 d         -11.366 207.380 115.207  0.00  0.00     0.032 A 
ATOM      5  N1   11 d         -12.141 206.769 116.200  0.00  0.00    -0.378 N 
ATOM      6  C5   11 d         -13.564 206.820 116.149  0.00  0.00     0.150 C 
ATOM      7  C6   11 d         -14.125 207.356 117.474  0.00  0.00     0.254 C 
ATOM      8  N2   11 d         -13.536 206.681 118.682  0.00  0.00    -0.072 N 
ATOM      9  C7   11 d         -12.035 206.652 118.614  0.00  0.00     0.254 C 
ATOM     10  C8   11 d         -11.521 206.086 117.285  0.00  0.00     0.150 C 
ATOM     11  C9   11 d         -14.127 205.325 118.927  0.00  0.00     0.269 C 
ATOM     12  C10  11 d         -11.645 207.159 113.846  0.00  0.00     0.032 A 
ATOM     13  C11  11 d         -10.848 207.737 112.851  0.00  0.00     0.040 A 
ATOM     14  H6   11 d         -13.799 207.282 119.535  0.00  0.00     0.279 HD
ENDROOT
BRANCH   2  15
ATOM     15  N3   11 d          -8.290 209.483 114.925  0.00  0.00    -0.383 N 
ATOM     16  H16  11 d          -8.443 210.408 115.262  0.00  0.00     0.160 HD
BRANCH  15  17
ATOM     17  C12  11 d          -6.942 209.017 114.829  0.00  0.00     0.090 C 
ATOM     18  C13  11 d          -6.549 208.105 116.036  0.00  0.00     0.009 C 
ATOM     19  C14  11 d          -6.505 208.928 117.353  0.00  0.00     0.011 C 
ATOM     20  C20  11 d          -5.149 207.488 115.790  0.00  0.00     0.011 C 
ATOM     21  C15  11 d          -5.460 210.060 117.226  0.00  0.00    -0.013 C 
ATOM     22  C16  11 d          -5.839 210.981 116.043  0.00  0.00     0.011 C 
ATOM     23  C21  11 d          -4.065 209.443 116.969  0.00  0.00     0.009 C 
ATOM     24  C17  11 d          -5.874 210.156 114.732  0.00  0.00     0.009 C 
ATOM     25  C18  11 d          -4.476 209.538 114.482  0.00  0.00     0.011 C 
ATOM     26  C19  11 d          -4.096 208.614 115.661  0.00  0.00    -0.013 C 
ENDBRANCH  15  17
ENDBRANCH   2  15
BRANCH   1  27
ATOM     27  N4   11 d          -8.935 209.047 112.168  0.00  0.00    -0.113 N 
ATOM     28  O1   11 d          -8.970 210.173 111.964  0.00  0.00    -0.532 OA
ATOM     29  O2   11 d          -7.913 208.413 111.784  0.00  0.00    -0.532 OA
ENDBRANCH   1  27
TORSDOF 3
ENDMDL
MODEL 7
REMARK VINA RESULT:      -8.2      2.824      4.008
REMARK  3 active torsions:
REMARK  status: ('A' for Active; 'I' for Inactive)
REMARK    1  A    between atoms: C1_1  and  N4_25 
REMARK    2  A    between atoms: C2_2  and  N3_14 
REMARK    3  A    between atoms: N3_14  and  C12_15 
ROOT
ATOM      1  C1   11 d          -8.679 208.972 115.157  0.00  0.00     0.129 A 
ATOM      2  C2   11 d          -9.709 208.605 116.069  0.00  0.00     0.064 A 
ATOM      3  C3   11 d          -9.352 208.054 117.320  0.00  0.00     0.061 A 
ATOM      4  C4   11 d          -8.006 207.947 117.723  0.00  0.00     0.032 A 
ATOM      5  N1   11 d          -7.671 207.498 119.006  0.00  0.00    -0.378 N 
ATOM      6  C5   11 d          -6.669 206.504 119.193  0.00  0.00     0.150 C 
ATOM      7  C6   11 d          -7.218 205.346 120.040  0.00  0.00     0.254 C 
ATOM      8  N2   11 d          -7.924 205.808 121.285  0.00  0.00    -0.072 N 
ATOM      9  C7   11 d          -8.931 206.880 120.978  0.00  0.00     0.254 C 
ATOM     10  C8   11 d          -8.332 208.025 120.153  0.00  0.00     0.150 C 
ATOM     11  C9   11 d          -6.970 206.210 122.370  0.00  0.00     0.269 C 
ATOM     12  C10  11 d          -7.000 208.333 116.818  0.00  0.00     0.032 A 
ATOM     13  C11  11 d          -7.332 208.819 115.548  0.00  0.00     0.040 A 
ATOM     14  H6   11 d          -8.472 204.963 121.666  0.00  0.00     0.279 HD
ENDROOT
BRANCH   2  15
ATOM     15  N3   11 d         -11.055 208.776 115.728  0.00  0.00    -0.383 N 
ATOM     16  H16  11 d         -11.302 209.616 115.252  0.00  0.00     0.160 HD
BRANCH  15  17
ATOM     17  C12  11 d         -12.095 207.845 116.035  0.00  0.00     0.090 C 
ATOM     18  C13  11 d         -11.747 206.398 115.559  0.00  0.00     0.009 C 
ATOM     19  C14  11 d         -11.707 206.326 114.008  0.00  0.00     0.011 C 
ATOM     20  C20  11 d         -12.821 205.406 116.073  0.00  0.00     0.011 C 
ATOM     21  C15  11 d         -13.086 206.718 113.431  0.00  0.00    -0.013 C 
ATOM     22  C16  11 d         -13.443 208.154 113.882  0.00  0.00     0.011 C 
ATOM     23  C21  11 d         -14.159 205.734 113.955  0.00  0.00     0.009 C 
ATOM     24  C17  11 d         -13.489 208.217 115.429  0.00  0.00     0.009 C 
ATOM     25  C18  11 d         -14.562 207.229 115.948  0.00  0.00     0.011 C 
ATOM     26  C19  11 d         -14.205 205.792 115.502  0.00  0.00    -0.013 C 
ENDBRANCH  15  17
ENDBRANCH   2  15
BRANCH   1  27
ATOM     27  N4   11 d          -8.968 209.495 113.902  0.00  0.00    -0.113 N 
ATOM     28  O1   11 d          -8.224 210.219 113.419  0.00  0.00    -0.532 OA
ATOM     29  O2   11 d          -9.767 208.883 113.142  0.00  0.00    -0.532 OA
ENDBRANCH   1  27
TORSDOF 3
ENDMDL
MODEL 8
REMARK VINA RESULT:      -8.1      3.026      7.361
REMARK  3 active torsions:
REMARK  status: ('A' for Active; 'I' for Inactive)
REMARK    1  A    between atoms: C1_1  and  N4_25 
REMARK    2  A    between atoms: C2_2  and  N3_14 
REMARK    3  A    between atoms: N3_14  and  C12_15 
ROOT
ATOM      1  C1   11 d          -8.512 209.008 114.527  0.00  0.00     0.129 A 
ATOM      2  C2   11 d          -9.137 208.610 115.743  0.00  0.00     0.064 A 
ATOM      3  C3   11 d         -10.455 208.102 115.700  0.00  0.00     0.061 A 
ATOM      4  C4   11 d         -11.127 207.892 114.479  0.00  0.00     0.032 A 
ATOM      5  N1   11 d         -12.390 207.290 114.447  0.00  0.00    -0.378 N 
ATOM      6  C5   11 d         -13.448 207.854 113.678  0.00  0.00     0.150 C 
ATOM      7  C6   11 d         -14.693 208.057 114.553  0.00  0.00     0.254 C 
ATOM      8  N2   11 d         -15.050 206.843 115.366  0.00  0.00    -0.072 N 
ATOM      9  C7   11 d         -13.855 206.311 116.106  0.00  0.00     0.254 C 
ATOM     10  C8   11 d         -12.644 206.100 115.188  0.00  0.00     0.150 C 
ATOM     11  C9   11 d         -15.737 205.789 114.551  0.00  0.00     0.269 C 
ATOM     12  C10  11 d         -10.487 208.272 113.285  0.00  0.00     0.032 A 
ATOM     13  C11  11 d          -9.207 208.839 113.311  0.00  0.00     0.040 A 
ATOM     14  H6   11 d         -15.761 207.161 116.108  0.00  0.00     0.279 HD
ENDROOT
BRANCH   2  15
ATOM     15  N3   11 d          -8.463 208.731 116.962  0.00  0.00    -0.383 N 
ATOM     16  H16  11 d          -8.118 209.633 117.206  0.00  0.00     0.160 HD
BRANCH  15  17
ATOM     17  C12  11 d          -8.218 207.650 117.865  0.00  0.00     0.090 C 
ATOM     18  C13  11 d          -9.089 207.756 119.158  0.00  0.00     0.009 C 
ATOM     19  C14  11 d          -8.658 208.981 120.010  0.00  0.00     0.011 C 
ATOM     20  C20  11 d          -8.915 206.474 120.012  0.00  0.00     0.011 C 
ATOM     21  C15  11 d          -7.176 208.836 120.422  0.00  0.00    -0.013 C 
ATOM     22  C16  11 d          -6.296 208.741 119.154  0.00  0.00     0.011 C 
ATOM     23  C21  11 d          -7.002 207.550 121.264  0.00  0.00     0.009 C 
ATOM     24  C17  11 d          -6.724 207.514 118.313  0.00  0.00     0.009 C 
ATOM     25  C18  11 d          -6.552 206.230 119.161  0.00  0.00     0.011 C 
ATOM     26  C19  11 d          -7.434 206.320 120.428  0.00  0.00    -0.013 C 
ENDBRANCH  15  17
ENDBRANCH   2  15
BRANCH   1  27
ATOM     27  N4   11 d          -7.226 209.538 114.507  0.00  0.00    -0.113 N 
ATOM     28  O1   11 d          -7.071 210.626 114.827  0.00  0.00    -0.532 OA
ATOM     29  O2   11 d          -6.233 208.763 114.566  0.00  0.00    -0.532 OA
ENDBRANCH   1  27
TORSDOF 3
ENDMDL
MODEL 9
REMARK VINA RESULT:      -7.8      2.918      5.955
REMARK  3 active torsions:
REMARK  status: ('A' for Active; 'I' for Inactive)
REMARK    1  A    between atoms: C1_1  and  N4_25 
REMARK    2  A    between atoms: C2_2  and  N3_14 
REMARK    3  A    between atoms: N3_14  and  C12_15 
ROOT
ATOM      1  C1   11 d         -11.690 207.360 112.213  0.00  0.00     0.129 A 
ATOM      2  C2   11 d         -11.470 207.703 113.577  0.00  0.00     0.064 A 
ATOM      3  C3   11 d         -10.187 208.142 113.975  0.00  0.00     0.061 A 
ATOM      4  C4   11 d          -9.151 208.338 113.040  0.00  0.00     0.032 A 
ATOM      5  N1   11 d          -7.918 208.873 113.433  0.00  0.00    -0.378 N 
ATOM      6  C5   11 d          -6.696 208.268 113.023  0.00  0.00     0.150 C 
ATOM      7  C6   11 d          -5.807 207.984 114.243  0.00  0.00     0.254 C 
ATOM      8  N2   11 d          -5.677 209.164 115.167  0.00  0.00    -0.072 N 
ATOM      9  C7   11 d          -7.021 209.745 115.505  0.00  0.00     0.254 C 
ATOM     10  C8   11 d          -7.863 210.035 114.256  0.00  0.00     0.150 C 
ATOM     11  C9   11 d          -4.719 210.195 114.651  0.00  0.00     0.269 C 
ATOM     12  C10  11 d          -9.390 208.013 111.692  0.00  0.00     0.032 A 
ATOM     13  C11  11 d         -10.635 207.514 111.289  0.00  0.00     0.040 A 
ATOM     14  H6   11 d          -5.255 208.796 116.086  0.00  0.00     0.279 HD
ENDROOT
BRANCH   2  15
ATOM     15  N3   11 d         -12.504 207.596 114.513  0.00  0.00    -0.383 N 
ATOM     16  H16  11 d         -13.006 208.427 114.735  0.00  0.00     0.160 HD
BRANCH  15  17
ATOM     17  C12  11 d         -12.872 206.388 115.183  0.00  0.00     0.090 C 
ATOM     18  C13  11 d         -14.268 206.504 115.875  0.00  0.00     0.009 C 
ATOM     19  C14  11 d         -14.215 207.514 117.054  0.00  0.00     0.011 C 
ATOM     20  C20  11 d         -14.693 205.119 116.428  0.00  0.00     0.011 C 
ATOM     21  C15  11 d         -13.181 207.040 118.101  0.00  0.00    -0.013 C 
ATOM     22  C16  11 d         -11.788 206.932 117.436  0.00  0.00     0.011 C 
ATOM     23  C21  11 d         -13.600 205.653 118.643  0.00  0.00     0.009 C 
ATOM     24  C17  11 d         -11.847 205.918 116.268  0.00  0.00     0.009 C 
ATOM     25  C18  11 d         -12.269 204.532 116.815  0.00  0.00     0.011 C 
ATOM     26  C19  11 d         -13.663 204.637 117.476  0.00  0.00    -0.013 C 
ENDBRANCH  15  17
ENDBRANCH   2  15
BRANCH   1  27
ATOM     27  N4   11 d         -12.923 206.899 111.766  0.00  0.00    -0.113 N 
ATOM     28  O1   11 d         -13.831 207.593 111.831  0.00  0.00    -0.532 OA
ATOM     29  O2   11 d         -12.968 205.952 110.934  0.00  0.00    -0.532 OA
ENDBRANCH   1  27
TORSDOF 3
ENDMDL
MODEL 10
REMARK VINA RESULT:      -7.8      3.526      7.500
REMARK  3 active torsions:
REMARK  status: ('A' for Active; 'I' for Inactive)
REMARK    1  A    between atoms: C1_1  and  N4_25 
REMARK    2  A    between atoms: C2_2  and  N3_14 
REMARK    3  A    between atoms: N3_14  and  C12_15 
ROOT
ATOM      1  C1   11 d         -10.224 207.597 118.291  0.00  0.00     0.129 A 
ATOM      2  C2   11 d          -9.978 208.100 116.982  0.00  0.00     0.064 A 
ATOM      3  C3   11 d         -10.953 207.901 115.978  0.00  0.00     0.061 A 
ATOM      4  C4   11 d         -12.196 207.303 116.264  0.00  0.00     0.032 A 
ATOM      5  N1   11 d         -13.192 207.208 115.284  0.00  0.00    -0.378 N 
ATOM      6  C5   11 d         -13.885 205.984 115.064  0.00  0.00     0.150 C 
ATOM      7  C6   11 d         -13.817 205.593 113.580  0.00  0.00     0.254 C 
ATOM      8  N2   11 d         -14.173 206.723 112.655  0.00  0.00    -0.072 N 
ATOM      9  C7   11 d         -13.413 207.973 112.999  0.00  0.00     0.254 C 
ATOM     10  C8   11 d         -13.530 208.337 114.484  0.00  0.00     0.150 C 
ATOM     11  C9   11 d         -15.653 206.954 112.574  0.00  0.00     0.269 C 
ATOM     12  C10  11 d         -12.431 206.829 117.568  0.00  0.00     0.032 A 
ATOM     13  C11  11 d         -11.451 206.957 118.560  0.00  0.00     0.040 A 
ATOM     14  H6   11 d         -13.861 206.429 111.668  0.00  0.00     0.279 HD
ENDROOT
BRANCH   2  15
ATOM     15  N3   11 d          -8.787 208.771 116.690  0.00  0.00    -0.383 N 
ATOM     16  H16  11 d          -8.708 209.716 116.995  0.00  0.00     0.160 HD
BRANCH  15  17
ATOM     17  C12  11 d          -7.690 208.204 115.968  0.00  0.00     0.090 C 
ATOM     18  C13  11 d          -6.419 208.044 116.863  0.00  0.00     0.009 C 
ATOM     19  C14  11 d          -5.849 209.434 117.259  0.00  0.00     0.011 C 
ATOM     20  C20  11 d          -5.327 207.265 116.086  0.00  0.00     0.011 C 
ATOM     21  C15  11 d          -5.464 210.222 115.987  0.00  0.00    -0.013 C 
ATOM     22  C16  11 d          -6.713 210.401 115.094  0.00  0.00     0.011 C 
ATOM     23  C21  11 d          -4.383 209.437 115.206  0.00  0.00     0.009 C 
ATOM     24  C17  11 d          -7.271 209.013 114.696  0.00  0.00     0.009 C 
ATOM     25  C18  11 d          -6.185 208.230 113.918  0.00  0.00     0.011 C 
ATOM     26  C19  11 d          -4.936 208.046 114.810  0.00  0.00    -0.013 C 
ENDBRANCH  15  17
ENDBRANCH   2  15
BRANCH   1  27
ATOM     27  N4   11 d          -9.292 207.740 119.314  0.00  0.00    -0.113 N 
ATOM     28  O1   11 d          -8.420 207.001 119.375  0.00  0.00    -0.532 OA
ATOM     29  O2   11 d          -9.152 208.861 119.875  0.00  0.00    -0.532 OA
ENDBRANCH   1  27
TORSDOF 3
ENDMDL
