MODEL 1
REMARK VINA RESULT:      -9.5      0.000      0.000
REMARK  4 active torsions:
REMARK  status: ('A' for Active; 'I' for Inactive)
REMARK    1  A    between atoms: N3_19  and  C15_20 
REMARK    2  A    between atoms: C15_20  and  C16_21 
REMARK       I    between atoms: C16_21  and  N4_23 
REMARK    3  A    between atoms: N4_23  and  C17_24 
REMARK    4  A    between atoms: C17_24  and  C18_25 
ROOT
ATOM      1  C1   11 d          -8.066 209.163 114.543  0.00  0.00     0.268 A 
ATOM      2  C2   11 d          -9.287 208.596 114.160  0.00  0.00     0.105 A 
ATOM      3  C3   11 d          -9.459 208.125 112.870  0.00  0.00     0.093 A 
ATOM      4  C4   11 d         -10.750 207.619 112.721  0.00  0.00     0.031 A 
ATOM      5  C5   11 d         -11.437 207.743 113.922  0.00  0.00     0.111 A 
ATOM      6  N1   11 d         -12.721 207.325 114.062  0.00  0.00    -0.244 NA
ATOM      7  C6   11 d         -13.367 206.742 113.000  0.00  0.00     0.047 A 
ATOM      8  C7   11 d         -12.725 206.647 111.736  0.00  0.00    -0.009 A 
ATOM      9  C8   11 d         -11.382 207.067 111.603  0.00  0.00     0.028 A 
ATOM     10  C9   11 d         -13.468 206.109 110.536  0.00  0.00     0.209 C 
ATOM     11  O1   11 d         -14.813 205.618 110.820  0.00  0.00    -0.376 OA
ATOM     12  C10  11 d         -15.568 206.385 111.806  0.00  0.00     0.059 C 
ATOM     13  C11  11 d         -14.812 206.368 113.154  0.00  0.00     0.097 C 
ATOM     14  C12  11 d         -16.916 205.663 111.970  0.00  0.00     0.046 C 
ATOM     15  C13  11 d         -15.845 207.824 111.314  0.00  0.00     0.046 C 
ATOM     16  S1   11 d         -10.552 208.386 114.951  0.00  0.00    -0.062 SA
ATOM     17  N2   11 d          -8.456 208.193 111.964  0.00  0.00    -0.241 NA
ATOM     18  C14  11 d          -7.259 208.738 112.333  0.00  0.00     0.213 A 
ATOM     19  N3   11 d          -7.038 209.242 113.607  0.00  0.00    -0.299 N 
ATOM     20  O4   11 d          -7.930 209.564 115.723  0.00  0.00    -0.266 OA
ENDROOT
BRANCH  19  21
ATOM     21  C15  11 d          -5.673 209.826 113.808  0.00  0.00     0.235 C 
BRANCH  21  22
ATOM     22  C16  11 d          -4.690 209.580 114.948  0.00  0.00     0.236 C 
ATOM     23  O2   11 d          -3.512 209.118 114.773  0.00  0.00    -0.272 OA
ATOM     24  N4   11 d          -5.112 209.883 116.276  0.00  0.00    -0.354 N 
ATOM     25  H15  11 d          -6.099 210.275 116.435  0.00  0.00     0.162 HD
BRANCH  24  26
ATOM     26  C17  11 d          -4.190 209.656 117.433  0.00  0.00     0.187 C 
BRANCH  26  27
ATOM     27  C18  11 d          -4.468 210.528 118.627  0.00  0.00     0.070 A 
ATOM     28  O3   11 d          -3.510 210.988 119.394  0.00  0.00    -0.325 OA
ATOM     29  C19  11 d          -4.051 211.815 120.253  0.00  0.00     0.142 A 
ATOM     30  C20  11 d          -5.411 211.936 120.034  0.00  0.00     0.027 A 
ATOM     31  C21  11 d          -5.682 211.110 118.962  0.00  0.00     0.036 A 
ENDBRANCH  26  27
ENDBRANCH  24  26
ENDBRANCH  21  22
ENDBRANCH  19  21
TORSDOF 4
ENDMDL
MODEL 2
REMARK VINA RESULT:      -9.2      2.497      4.513
REMARK  4 active torsions:
REMARK  status: ('A' for Active; 'I' for Inactive)
REMARK    1  A    between atoms: N3_19  and  C15_20 
REMARK    2  A    between atoms: C15_20  and  C16_21 
REMARK       I    between atoms: C16_21  and  N4_23 
REMARK    3  A    between atoms: N4_23  and  C17_24 
REMARK    4  A    between atoms: C17_24  and  C18_25 
ROOT
ATOM      1  C1   11 d          -8.080 209.156 114.790  0.00  0.00     0.268 A 
ATOM      2  C2   11 d          -9.279 208.578 114.355  0.00  0.00     0.105 A 
ATOM      3  C3   11 d          -9.452 208.261 113.019  0.00  0.00     0.093 A 
ATOM      4  C4   11 d         -10.718 207.710 112.825  0.00  0.00     0.031 A 
ATOM      5  C5   11 d         -11.387 207.649 114.041  0.00  0.00     0.111 A 
ATOM      6  N1   11 d         -12.646 207.150 114.144  0.00  0.00    -0.244 NA
ATOM      7  C6   11 d         -13.282 206.669 113.026  0.00  0.00     0.047 A 
ATOM      8  C7   11 d         -12.660 206.765 111.752  0.00  0.00    -0.009 A 
ATOM      9  C8   11 d         -11.343 207.269 111.655  0.00  0.00     0.028 A 
ATOM     10  C9   11 d         -13.399 206.342 110.504  0.00  0.00     0.209 C 
ATOM     11  O1   11 d         -14.711 205.749 110.743  0.00  0.00    -0.376 OA
ATOM     12  C10  11 d         -15.485 206.348 111.825  0.00  0.00     0.059 C 
ATOM     13  C11  11 d         -14.703 206.204 113.151  0.00  0.00     0.097 C 
ATOM     14  C12  11 d         -16.791 205.542 111.916  0.00  0.00     0.046 C 
ATOM     15  C13  11 d         -15.844 207.821 111.520  0.00  0.00     0.046 C 
ATOM     16  S1   11 d         -10.516 208.206 115.130  0.00  0.00    -0.062 SA
ATOM     17  N2   11 d          -8.471 208.493 112.115  0.00  0.00    -0.241 NA
ATOM     18  C14  11 d          -7.296 209.051 112.533  0.00  0.00     0.213 A 
ATOM     19  N3   11 d          -7.076 209.404 113.857  0.00  0.00    -0.299 N 
ATOM     20  O4   11 d          -7.943 209.415 116.008  0.00  0.00    -0.266 OA
ENDROOT
BRANCH  19  21
ATOM     21  C15  11 d          -5.739 210.030 114.111  0.00  0.00     0.235 C 
BRANCH  21  22
ATOM     22  C16  11 d          -4.352 209.457 113.836  0.00  0.00     0.236 C 
ATOM     23  O2   11 d          -3.527 209.138 114.757  0.00  0.00    -0.272 OA
ATOM     24  N4   11 d          -3.960 209.272 112.477  0.00  0.00    -0.354 N 
ATOM     25  H15  11 d          -4.646 209.533 111.694  0.00  0.00     0.162 HD
BRANCH  24  26
ATOM     26  C17  11 d          -2.608 208.718 112.150  0.00  0.00     0.187 C 
BRANCH  26  27
ATOM     27  C18  11 d          -2.215 208.859 110.704  0.00  0.00     0.070 A 
ATOM     28  O3   11 d          -0.989 209.144 110.338  0.00  0.00    -0.325 OA
ATOM     29  C19  11 d          -0.936 209.064 109.032  0.00  0.00     0.142 A 
ATOM     30  C20  11 d          -2.157 208.683 108.509  0.00  0.00     0.027 A 
ATOM     31  C21  11 d          -2.989 208.532 109.600  0.00  0.00     0.036 A 
ENDBRANCH  26  27
ENDBRANCH  24  26
ENDBRANCH  21  22
ENDBRANCH  19  21
TORSDOF 4
ENDMDL
MODEL 3
REMARK VINA RESULT:      -9.2      2.812      4.682
REMARK  4 active torsions:
REMARK  status: ('A' for Active; 'I' for Inactive)
REMARK    1  A    between atoms: N3_19  and  C15_20 
REMARK    2  A    between atoms: C15_20  and  C16_21 
REMARK       I    between atoms: C16_21  and  N4_23 
REMARK    3  A    between atoms: N4_23  and  C17_24 
REMARK    4  A    between atoms: C17_24  and  C18_25 
ROOT
ATOM      1  C1   11 d          -7.525 208.665 113.054  0.00  0.00     0.268 A 
ATOM      2  C2   11 d          -8.883 208.384 112.862  0.00  0.00     0.105 A 
ATOM      3  C3   11 d          -9.764 208.456 113.926  0.00  0.00     0.093 A 
ATOM      4  C4   11 d         -11.049 208.127 113.498  0.00  0.00     0.031 A 
ATOM      5  C5   11 d         -11.026 207.848 112.138  0.00  0.00     0.111 A 
ATOM      6  N1   11 d         -12.148 207.499 111.457  0.00  0.00    -0.244 NA
ATOM      7  C6   11 d         -13.352 207.437 112.113  0.00  0.00     0.047 A 
ATOM      8  C7   11 d         -13.415 207.657 113.516  0.00  0.00    -0.009 A 
ATOM      9  C8   11 d         -12.246 208.037 114.214  0.00  0.00     0.028 A 
ATOM     10  C9   11 d         -14.715 207.481 114.263  0.00  0.00     0.209 C 
ATOM     11  O1   11 d         -15.869 207.183 113.419  0.00  0.00    -0.376 OA
ATOM     12  C10  11 d         -15.608 206.306 112.283  0.00  0.00     0.059 C 
ATOM     13  C11  11 d         -14.560 206.966 111.358  0.00  0.00     0.097 C 
ATOM     14  C12  11 d         -16.940 206.174 111.528  0.00  0.00     0.046 C 
ATOM     15  C13  11 d         -15.169 204.896 112.742  0.00  0.00     0.046 C 
ATOM     16  S1   11 d          -9.626 207.988 111.613  0.00  0.00    -0.062 SA
ATOM     17  N2   11 d          -9.336 208.804 115.163  0.00  0.00    -0.241 NA
ATOM     18  C14  11 d          -8.013 209.086 115.356  0.00  0.00     0.213 A 
ATOM     19  N3   11 d          -7.084 209.012 114.328  0.00  0.00    -0.299 N 
ATOM     20  O4   11 d          -6.752 208.612 112.068  0.00  0.00    -0.266 OA
ENDROOT
BRANCH  19  21
ATOM     21  C15  11 d          -5.680 209.328 114.746  0.00  0.00     0.235 C 
BRANCH  21  22
ATOM     22  C16  11 d          -4.401 209.263 113.916  0.00  0.00     0.236 C 
ATOM     23  O2   11 d          -3.713 210.293 113.604  0.00  0.00    -0.272 OA
ATOM     24  N4   11 d          -3.956 207.985 113.467  0.00  0.00    -0.354 N 
ATOM     25  H15  11 d          -4.524 207.111 113.726  0.00  0.00     0.162 HD
BRANCH  24  26
ATOM     26  C17  11 d          -2.711 207.864 112.644  0.00  0.00     0.187 C 
BRANCH  26  27
ATOM     27  C18  11 d          -2.826 208.440 111.259  0.00  0.00     0.070 A 
ATOM     28  O3   11 d          -2.019 209.377 110.823  0.00  0.00    -0.325 OA
ATOM     29  C19  11 d          -2.281 209.567 109.554  0.00  0.00     0.142 A 
ATOM     30  C20  11 d          -3.273 208.709 109.119  0.00  0.00     0.027 A 
ATOM     31  C21  11 d          -3.618 207.960 110.226  0.00  0.00     0.036 A 
ENDBRANCH  26  27
ENDBRANCH  24  26
ENDBRANCH  21  22
ENDBRANCH  19  21
TORSDOF 4
ENDMDL
MODEL 4
REMARK VINA RESULT:      -8.8      1.655      2.187
REMARK  4 active torsions:
REMARK  status: ('A' for Active; 'I' for Inactive)
REMARK    1  A    between atoms: N3_19  and  C15_20 
REMARK    2  A    between atoms: C15_20  and  C16_21 
REMARK       I    between atoms: C16_21  and  N4_23 
REMARK    3  A    between atoms: N4_23  and  C17_24 
REMARK    4  A    between atoms: C17_24  and  C18_25 
ROOT
ATOM      1  C1   11 d          -7.590 208.675 113.237  0.00  0.00     0.268 A 
ATOM      2  C2   11 d          -8.946 208.398 113.030  0.00  0.00     0.105 A 
ATOM      3  C3   11 d          -9.834 208.442 114.090  0.00  0.00     0.093 A 
ATOM      4  C4   11 d         -11.116 208.123 113.646  0.00  0.00     0.031 A 
ATOM      5  C5   11 d         -11.084 207.877 112.279  0.00  0.00     0.111 A 
ATOM      6  N1   11 d         -12.201 207.544 111.583  0.00  0.00    -0.244 NA
ATOM      7  C6   11 d         -13.409 207.465 112.230  0.00  0.00     0.047 A 
ATOM      8  C7   11 d         -13.481 207.651 113.637  0.00  0.00    -0.009 A 
ATOM      9  C8   11 d         -12.318 208.015 114.352  0.00  0.00     0.028 A 
ATOM     10  C9   11 d         -14.787 207.455 114.372  0.00  0.00     0.209 C 
ATOM     11  O1   11 d         -15.934 207.177 113.514  0.00  0.00    -0.376 OA
ATOM     12  C10  11 d         -15.665 206.327 112.358  0.00  0.00     0.059 C 
ATOM     13  C11  11 d         -14.613 207.011 111.456  0.00  0.00     0.097 C 
ATOM     14  C12  11 d         -16.993 206.213 111.592  0.00  0.00     0.046 C 
ATOM     15  C13  11 d         -15.228 204.907 112.786  0.00  0.00     0.046 C 
ATOM     16  S1   11 d          -9.681 208.031 111.767  0.00  0.00    -0.062 SA
ATOM     17  N2   11 d          -9.414 208.761 115.337  0.00  0.00    -0.241 NA
ATOM     18  C14  11 d          -8.093 209.039 115.546  0.00  0.00     0.213 A 
ATOM     19  N3   11 d          -7.157 208.992 114.522  0.00  0.00    -0.299 N 
ATOM     20  O4   11 d          -6.811 208.647 112.255  0.00  0.00    -0.266 OA
ENDROOT
BRANCH  19  21
ATOM     21  C15  11 d          -5.756 209.298 114.956  0.00  0.00     0.235 C 
BRANCH  21  22
ATOM     22  C16  11 d          -5.097 209.031 116.306  0.00  0.00     0.236 C 
ATOM     23  O2   11 d          -4.678 207.880 116.668  0.00  0.00    -0.272 OA
ATOM     24  N4   11 d          -4.945 210.125 117.207  0.00  0.00    -0.354 N 
ATOM     25  H15  11 d          -5.290 211.099 116.913  0.00  0.00     0.162 HD
BRANCH  24  26
ATOM     26  C17  11 d          -4.310 209.918 118.547  0.00  0.00     0.187 C 
BRANCH  26  27
ATOM     27  C18  11 d          -4.589 211.013 119.540  0.00  0.00     0.070 A 
ATOM     28  O3   11 d          -3.631 211.719 120.089  0.00  0.00    -0.325 OA
ATOM     29  C19  11 d          -4.191 212.671 120.793  0.00  0.00     0.142 A 
ATOM     30  C20  11 d          -5.568 212.620 120.687  0.00  0.00     0.027 A 
ATOM     31  C21  11 d          -5.830 211.549 119.855  0.00  0.00     0.036 A 
ENDBRANCH  26  27
ENDBRANCH  24  26
ENDBRANCH  21  22
ENDBRANCH  19  21
TORSDOF 4
ENDMDL
MODEL 5
REMARK VINA RESULT:      -8.7      3.375      4.494
REMARK  4 active torsions:
REMARK  status: ('A' for Active; 'I' for Inactive)
REMARK    1  A    between atoms: N3_19  and  C15_20 
REMARK    2  A    between atoms: C15_20  and  C16_21 
REMARK       I    between atoms: C16_21  and  N4_23 
REMARK    3  A    between atoms: N4_23  and  C17_24 
REMARK    4  A    between atoms: C17_24  and  C18_25 
ROOT
ATOM      1  C1   11 d          -9.514 207.526 117.889  0.00  0.00     0.268 A 
ATOM      2  C2   11 d         -10.553 207.457 116.953  0.00  0.00     0.105 A 
ATOM      3  C3   11 d         -11.685 206.709 117.227  0.00  0.00     0.093 A 
ATOM      4  C4   11 d         -12.570 206.782 116.153  0.00  0.00     0.031 A 
ATOM      5  C5   11 d         -12.029 207.592 115.162  0.00  0.00     0.111 A 
ATOM      6  N1   11 d         -12.685 207.839 113.999  0.00  0.00    -0.244 NA
ATOM      7  C6   11 d         -13.928 207.297 113.789  0.00  0.00     0.047 A 
ATOM      8  C7   11 d         -14.496 206.415 114.748  0.00  0.00    -0.009 A 
ATOM      9  C8   11 d         -13.816 206.177 115.964  0.00  0.00     0.028 A 
ATOM     10  C9   11 d         -15.812 205.727 114.473  0.00  0.00     0.209 C 
ATOM     11  O1   11 d         -16.463 206.127 113.230  0.00  0.00    -0.376 OA
ATOM     12  C10  11 d         -15.569 206.371 112.102  0.00  0.00     0.059 C 
ATOM     13  C11  11 d         -14.593 207.514 112.461  0.00  0.00     0.097 C 
ATOM     14  C12  11 d         -16.465 206.816 110.934  0.00  0.00     0.046 C 
ATOM     15  C13  11 d         -14.825 205.084 111.678  0.00  0.00     0.046 C 
ATOM     16  S1   11 d         -10.681 208.094 115.594  0.00  0.00    -0.062 SA
ATOM     17  N2   11 d         -11.813 206.043 118.399  0.00  0.00    -0.241 NA
ATOM     18  C14  11 d         -10.806 206.112 119.320  0.00  0.00     0.213 A 
ATOM     19  N3   11 d          -9.642 206.832 119.089  0.00  0.00    -0.299 N 
ATOM     20  O4   11 d          -8.509 208.226 117.623  0.00  0.00    -0.266 OA
ENDROOT
BRANCH  19  21
ATOM     21  C15  11 d          -8.645 206.760 120.204  0.00  0.00     0.235 C 
BRANCH  21  22
ATOM     22  C16  11 d          -8.142 207.883 121.107  0.00  0.00     0.236 C 
ATOM     23  O2   11 d          -8.916 208.636 121.789  0.00  0.00    -0.272 OA
ATOM     24  N4   11 d          -6.735 208.099 121.191  0.00  0.00    -0.354 N 
ATOM     25  H15  11 d          -6.074 207.469 120.625  0.00  0.00     0.162 HD
BRANCH  24  26
ATOM     26  C17  11 d          -6.188 209.190 122.057  0.00  0.00     0.187 C 
BRANCH  26  27
ATOM     27  C18  11 d          -5.942 210.488 121.337  0.00  0.00     0.070 A 
ATOM     28  O3   11 d          -6.272 210.663 120.081  0.00  0.00    -0.325 OA
ATOM     29  C19  11 d          -6.060 211.921 119.786  0.00  0.00     0.142 A 
ATOM     30  C20  11 d          -5.604 212.618 120.889  0.00  0.00     0.027 A 
ATOM     31  C21  11 d          -5.543 211.688 121.907  0.00  0.00     0.036 A 
ENDBRANCH  26  27
ENDBRANCH  24  26
ENDBRANCH  21  22
ENDBRANCH  19  21
TORSDOF 4
ENDMDL
MODEL 6
REMARK VINA RESULT:      -8.5      2.601      4.012
REMARK  4 active torsions:
REMARK  status: ('A' for Active; 'I' for Inactive)
REMARK    1  A    between atoms: N3_19  and  C15_20 
REMARK    2  A    between atoms: C15_20  and  C16_21 
REMARK       I    between atoms: C16_21  and  N4_23 
REMARK    3  A    between atoms: N4_23  and  C17_24 
REMARK    4  A    between atoms: C17_24  and  C18_25 
ROOT
ATOM      1  C1   11 d          -8.720 208.451 116.415  0.00  0.00     0.268 A 
ATOM      2  C2   11 d          -9.918 208.194 115.737  0.00  0.00     0.105 A 
ATOM      3  C3   11 d         -10.932 207.490 116.363  0.00  0.00     0.093 A 
ATOM      4  C4   11 d         -12.014 207.350 115.495  0.00  0.00     0.031 A 
ATOM      5  C5   11 d         -11.724 207.975 114.289  0.00  0.00     0.111 A 
ATOM      6  N1   11 d         -12.608 207.995 113.259  0.00  0.00    -0.244 NA
ATOM      7  C6   11 d         -13.838 207.402 113.405  0.00  0.00     0.047 A 
ATOM      8  C7   11 d         -14.157 206.700 114.599  0.00  0.00    -0.009 A 
ATOM      9  C8   11 d         -13.239 206.699 115.673  0.00  0.00     0.028 A 
ATOM     10  C9   11 d         -15.463 205.951 114.723  0.00  0.00     0.209 C 
ATOM     11  O1   11 d         -16.366 206.107 113.588  0.00  0.00    -0.376 OA
ATOM     12  C10  11 d         -15.728 206.156 112.277  0.00  0.00     0.059 C 
ATOM     13  C11  11 d         -14.763 207.362 112.224  0.00  0.00     0.097 C 
ATOM     14  C12  11 d         -16.859 206.365 111.256  0.00  0.00     0.046 C 
ATOM     15  C13  11 d         -15.013 204.826 111.943  0.00  0.00     0.046 C 
ATOM     16  S1   11 d         -10.346 208.570 114.343  0.00  0.00    -0.062 SA
ATOM     17  N2   11 d         -10.791 207.047 117.634  0.00  0.00    -0.241 NA
ATOM     18  C14  11 d          -9.627 207.300 118.304  0.00  0.00     0.213 A 
ATOM     19  N3   11 d          -8.572 207.986 117.719  0.00  0.00    -0.299 N 
ATOM     20  O4   11 d          -7.826 209.107 115.832  0.00  0.00    -0.266 OA
ENDROOT
BRANCH  19  21
ATOM     21  C15  11 d          -7.372 208.135 118.603  0.00  0.00     0.235 C 
BRANCH  21  22
ATOM     22  C16  11 d          -5.898 207.956 118.247  0.00  0.00     0.236 C 
ATOM     23  O2   11 d          -5.183 206.991 118.681  0.00  0.00    -0.272 OA
ATOM     24  N4   11 d          -5.293 208.919 117.388  0.00  0.00    -0.354 N 
ATOM     25  H15  11 d          -5.885 209.733 117.014  0.00  0.00     0.162 HD
BRANCH  24  26
ATOM     26  C17  11 d          -3.849 208.795 117.011  0.00  0.00     0.187 C 
BRANCH  26  27
ATOM     27  C18  11 d          -3.615 208.223 115.640  0.00  0.00     0.070 A 
ATOM     28  O3   11 d          -2.565 208.539 114.921  0.00  0.00    -0.325 OA
ATOM     29  C19  11 d          -2.573 207.784 113.851  0.00  0.00     0.142 A 
ATOM     30  C20  11 d          -3.646 206.913 113.869  0.00  0.00     0.027 A 
ATOM     31  C21  11 d          -4.317 207.185 115.044  0.00  0.00     0.036 A 
ENDBRANCH  26  27
ENDBRANCH  24  26
ENDBRANCH  21  22
ENDBRANCH  19  21
TORSDOF 4
ENDMDL
MODEL 7
REMARK VINA RESULT:      -8.3      3.443      4.713
REMARK  4 active torsions:
REMARK  status: ('A' for Active; 'I' for Inactive)
REMARK    1  A    between atoms: N3_19  and  C15_20 
REMARK    2  A    between atoms: C15_20  and  C16_21 
REMARK       I    between atoms: C16_21  and  N4_23 
REMARK    3  A    between atoms: N4_23  and  C17_24 
REMARK    4  A    between atoms: C17_24  and  C18_25 
ROOT
ATOM      1  C1   11 d          -9.261 207.753 117.538  0.00  0.00     0.268 A 
ATOM      2  C2   11 d         -10.352 207.640 116.667  0.00  0.00     0.105 A 
ATOM      3  C3   11 d         -11.464 206.906 117.040  0.00  0.00     0.093 A 
ATOM      4  C4   11 d         -12.409 206.928 116.016  0.00  0.00     0.031 A 
ATOM      5  C5   11 d         -11.929 207.693 114.960  0.00  0.00     0.111 A 
ATOM      6  N1   11 d         -12.650 207.886 113.826  0.00  0.00    -0.244 NA
ATOM      7  C6   11 d         -13.902 207.334 113.713  0.00  0.00     0.047 A 
ATOM      8  C7   11 d         -14.411 206.496 114.742  0.00  0.00    -0.009 A 
ATOM      9  C8   11 d         -13.662 206.314 115.926  0.00  0.00     0.028 A 
ATOM     10  C9   11 d         -15.739 205.795 114.575  0.00  0.00     0.209 C 
ATOM     11  O1   11 d         -16.461 206.138 113.354  0.00  0.00    -0.376 OA
ATOM     12  C10  11 d         -15.634 206.330 112.166  0.00  0.00     0.059 C 
ATOM     13  C11  11 d         -14.643 207.489 112.417  0.00  0.00     0.097 C 
ATOM     14  C12  11 d         -16.597 206.722 111.033  0.00  0.00     0.046 C 
ATOM     15  C13  11 d         -14.911 205.026 111.760  0.00  0.00     0.046 C 
ATOM     16  S1   11 d         -10.560 208.214 115.290  0.00  0.00    -0.062 SA
ATOM     17  N2   11 d         -11.523 206.294 118.246  0.00  0.00    -0.241 NA
ATOM     18  C14  11 d         -10.465 206.405 119.104  0.00  0.00     0.213 A 
ATOM     19  N3   11 d          -9.318 207.115 118.774  0.00  0.00    -0.299 N 
ATOM     20  O4   11 d          -8.275 208.440 117.183  0.00  0.00    -0.266 OA
ENDROOT
BRANCH  19  21
ATOM     21  C15  11 d          -8.258 207.094 119.833  0.00  0.00     0.235 C 
BRANCH  21  22
ATOM     22  C16  11 d          -6.816 206.608 119.728  0.00  0.00     0.236 C 
ATOM     23  O2   11 d          -6.050 206.455 120.739  0.00  0.00    -0.272 OA
ATOM     24  N4   11 d          -6.300 206.310 118.432  0.00  0.00    -0.354 N 
ATOM     25  H15  11 d          -6.936 206.431 117.575  0.00  0.00     0.162 HD
BRANCH  24  26
ATOM     26  C17  11 d          -4.890 205.835 118.271  0.00  0.00     0.187 C 
BRANCH  26  27
ATOM     27  C18  11 d          -4.271 206.172 116.942  0.00  0.00     0.070 A 
ATOM     28  O3   11 d          -3.179 205.588 116.511  0.00  0.00    -0.325 OA
ATOM     29  C19  11 d          -2.972 205.990 115.282  0.00  0.00     0.142 A 
ATOM     30  C20  11 d          -3.974 206.846 114.865  0.00  0.00     0.027 A 
ATOM     31  C21  11 d          -4.833 206.953 115.941  0.00  0.00     0.036 A 
ENDBRANCH  26  27
ENDBRANCH  24  26
ENDBRANCH  21  22
ENDBRANCH  19  21
TORSDOF 4
ENDMDL
MODEL 8
REMARK VINA RESULT:      -8.2      2.817     10.235
REMARK  4 active torsions:
REMARK  status: ('A' for Active; 'I' for Inactive)
REMARK    1  A    between atoms: N3_19  and  C15_20 
REMARK    2  A    between atoms: C15_20  and  C16_21 
REMARK       I    between atoms: C16_21  and  N4_23 
REMARK    3  A    between atoms: N4_23  and  C17_24 
REMARK    4  A    between atoms: C17_24  and  C18_25 
ROOT
ATOM      1  C1   11 d         -11.772 207.361 117.942  0.00  0.00     0.268 A 
ATOM      2  C2   11 d         -10.400 207.636 117.905  0.00  0.00     0.105 A 
ATOM      3  C3   11 d          -9.814 208.090 116.737  0.00  0.00     0.093 A 
ATOM      4  C4   11 d          -8.448 208.283 116.938  0.00  0.00     0.031 A 
ATOM      5  C5   11 d          -8.124 207.967 118.251  0.00  0.00     0.111 A 
ATOM      6  N1   11 d          -6.855 208.067 118.722  0.00  0.00    -0.244 NA
ATOM      7  C6   11 d          -5.854 208.513 117.895  0.00  0.00     0.047 A 
ATOM      8  C7   11 d          -6.126 208.792 116.528  0.00  0.00    -0.009 A 
ATOM      9  C8   11 d          -7.453 208.702 116.050  0.00  0.00     0.028 A 
ATOM     10  C9   11 d          -5.009 209.174 115.586  0.00  0.00     0.209 C 
ATOM     11  O1   11 d          -3.703 209.327 116.218  0.00  0.00    -0.376 OA
ATOM     12  C10  11 d          -3.403 208.376 117.284  0.00  0.00     0.059 C 
ATOM     13  C11  11 d          -4.446 208.532 118.414  0.00  0.00     0.097 C 
ATOM     14  C12  11 d          -2.013 208.757 117.819  0.00  0.00     0.046 C 
ATOM     15  C13  11 d          -3.338 206.927 116.750  0.00  0.00     0.046 C 
ATOM     16  S1   11 d          -9.355 207.520 118.985  0.00  0.00    -0.062 SA
ATOM     17  N2   11 d         -10.551 208.285 115.618  0.00  0.00    -0.241 NA
ATOM     18  C14  11 d         -11.892 208.026 115.649  0.00  0.00     0.213 A 
ATOM     19  N3   11 d         -12.527 207.552 116.788  0.00  0.00    -0.299 N 
ATOM     20  O4   11 d         -12.280 206.970 119.019  0.00  0.00    -0.266 OA
ENDROOT
BRANCH  19  21
ATOM     21  C15  11 d         -13.994 207.299 116.614  0.00  0.00     0.235 C 
BRANCH  21  22
ATOM     22  C16  11 d         -14.708 206.586 115.469  0.00  0.00     0.236 C 
ATOM     23  O2   11 d         -14.905 205.324 115.441  0.00  0.00    -0.272 OA
ATOM     24  N4   11 d         -15.177 207.373 114.376  0.00  0.00    -0.354 N 
ATOM     25  H15  11 d         -15.020 208.435 114.390  0.00  0.00     0.162 HD
BRANCH  24  26
ATOM     26  C17  11 d         -15.879 206.724 113.225  0.00  0.00     0.187 C 
BRANCH  26  27
ATOM     27  C18  11 d         -15.182 206.888 111.902  0.00  0.00     0.070 A 
ATOM     28  O3   11 d         -13.877 206.843 111.790  0.00  0.00    -0.325 OA
ATOM     29  C19  11 d         -13.585 206.880 110.514  0.00  0.00     0.142 A 
ATOM     30  C20  11 d         -14.733 206.919 109.745  0.00  0.00     0.027 A 
ATOM     31  C21  11 d         -15.777 206.906 110.649  0.00  0.00     0.036 A 
ENDBRANCH  26  27
ENDBRANCH  24  26
ENDBRANCH  21  22
ENDBRANCH  19  21
TORSDOF 4
ENDMDL
MODEL 9
REMARK VINA RESULT:      -8.2      6.905      9.206
REMARK  4 active torsions:
REMARK  status: ('A' for Active; 'I' for Inactive)
REMARK    1  A    between atoms: N3_19  and  C15_20 
REMARK    2  A    between atoms: C15_20  and  C16_21 
REMARK       I    between atoms: C16_21  and  N4_23 
REMARK    3  A    between atoms: N4_23  and  C17_24 
REMARK    4  A    between atoms: C17_24  and  C18_25 
ROOT
ATOM      1  C1   11 d         -12.362 206.098 119.147  0.00  0.00     0.268 A 
ATOM      2  C2   11 d         -12.767 206.276 117.819  0.00  0.00     0.105 A 
ATOM      3  C3   11 d         -14.029 205.874 117.418  0.00  0.00     0.093 A 
ATOM      4  C4   11 d         -14.201 206.142 116.061  0.00  0.00     0.031 A 
ATOM      5  C5   11 d         -13.051 206.736 115.557  0.00  0.00     0.111 A 
ATOM      6  N1   11 d         -12.944 207.106 114.255  0.00  0.00    -0.244 NA
ATOM      7  C6   11 d         -14.003 206.913 113.403  0.00  0.00     0.047 A 
ATOM      8  C7   11 d         -15.177 206.255 113.858  0.00  0.00    -0.009 A 
ATOM      9  C8   11 d         -15.288 205.889 115.219  0.00  0.00     0.028 A 
ATOM     10  C9   11 d         -16.300 205.939 112.899  0.00  0.00     0.209 C 
ATOM     11  O1   11 d         -16.110 206.452 111.546  0.00  0.00    -0.376 OA
ATOM     12  C10  11 d         -14.743 206.400 111.039  0.00  0.00     0.059 C 
ATOM     13  C11  11 d         -13.829 207.250 111.951  0.00  0.00     0.097 C 
ATOM     14  C12  11 d         -14.782 207.026 109.635  0.00  0.00     0.046 C 
ATOM     15  C13  11 d         -14.240 204.944 110.908  0.00  0.00     0.046 C 
ATOM     16  S1   11 d         -12.028 206.871 116.648  0.00  0.00    -0.062 SA
ATOM     17  N2   11 d         -14.894 205.314 118.296  0.00  0.00    -0.241 NA
ATOM     18  C14  11 d         -14.508 205.143 119.596  0.00  0.00     0.213 A 
ATOM     19  N3   11 d         -13.248 205.512 120.047  0.00  0.00    -0.299 N 
ATOM     20  O4   11 d         -11.221 206.489 119.487  0.00  0.00    -0.266 OA
ENDROOT
BRANCH  19  21
ATOM     21  C15  11 d         -13.004 205.216 121.495  0.00  0.00     0.235 C 
BRANCH  21  22
ATOM     22  C16  11 d         -13.774 205.719 122.713  0.00  0.00     0.236 C 
ATOM     23  O2   11 d         -13.862 206.953 123.029  0.00  0.00    -0.272 OA
ATOM     24  N4   11 d         -14.427 204.757 123.539  0.00  0.00    -0.354 N 
ATOM     25  H15  11 d         -14.363 203.716 123.282  0.00  0.00     0.162 HD
BRANCH  24  26
ATOM     26  C17  11 d         -15.191 205.194 124.750  0.00  0.00     0.187 C 
BRANCH  26  27
ATOM     27  C18  11 d         -16.637 205.517 124.485  0.00  0.00     0.070 A 
ATOM     28  O3   11 d         -17.133 206.714 124.681  0.00  0.00    -0.325 OA
ATOM     29  C19  11 d         -18.365 206.712 124.236  0.00  0.00     0.142 A 
ATOM     30  C20  11 d         -18.694 205.482 123.697  0.00  0.00     0.027 A 
ATOM     31  C21  11 d         -17.562 204.706 123.843  0.00  0.00     0.036 A 
ENDBRANCH  26  27
ENDBRANCH  24  26
ENDBRANCH  21  22
ENDBRANCH  19  21
TORSDOF 4
ENDMDL
MODEL 10
REMARK VINA RESULT:      -8.1      2.619     10.440
REMARK  4 active torsions:
REMARK  status: ('A' for Active; 'I' for Inactive)
REMARK    1  A    between atoms: N3_19  and  C15_20 
REMARK    2  A    between atoms: C15_20  and  C16_21 
REMARK       I    between atoms: C16_21  and  N4_23 
REMARK    3  A    between atoms: N4_23  and  C17_24 
REMARK    4  A    between atoms: C17_24  and  C18_25 
ROOT
ATOM      1  C1   11 d         -11.922 207.678 115.614  0.00  0.00     0.268 A 
ATOM      2  C2   11 d         -10.630 207.951 116.077  0.00  0.00     0.105 A 
ATOM      3  C3   11 d         -10.237 207.521 117.332  0.00  0.00     0.093 A 
ATOM      4  C4   11 d          -8.922 207.915 117.576  0.00  0.00     0.031 A 
ATOM      5  C5   11 d          -8.433 208.601 116.472  0.00  0.00     0.111 A 
ATOM      6  N1   11 d          -7.170 209.099 116.437  0.00  0.00    -0.244 NA
ATOM      7  C6   11 d          -6.333 208.908 117.508  0.00  0.00     0.047 A 
ATOM      8  C7   11 d          -6.808 208.264 118.683  0.00  0.00    -0.009 A 
ATOM      9  C8   11 d          -8.117 207.733 118.704  0.00  0.00     0.028 A 
ATOM     10  C9   11 d          -5.928 208.150 119.905  0.00  0.00     0.209 C 
ATOM     11  O1   11 d          -4.568 208.648 119.727  0.00  0.00    -0.376 OA
ATOM     12  C10  11 d          -4.438 209.843 118.899  0.00  0.00     0.059 C 
ATOM     13  C11  11 d          -4.972 209.541 117.481  0.00  0.00     0.097 C 
ATOM     14  C12  11 d          -2.933 210.149 118.821  0.00  0.00     0.046 C 
ATOM     15  C13  11 d          -5.147 211.058 119.540  0.00  0.00     0.046 C 
ATOM     16  S1   11 d          -9.493 208.685 115.413  0.00  0.00    -0.062 SA
ATOM     17  N2   11 d         -11.084 206.825 118.127  0.00  0.00    -0.241 NA
ATOM     18  C14  11 d         -12.345 206.549 117.679  0.00  0.00     0.213 A 
ATOM     19  N3   11 d         -12.796 206.972 116.436  0.00  0.00    -0.299 N 
ATOM     20  O4   11 d         -12.245 208.062 114.466  0.00  0.00    -0.266 OA
ENDROOT
BRANCH  19  21
ATOM     21  C15  11 d         -14.216 206.599 116.140  0.00  0.00     0.235 C 
BRANCH  21  22
ATOM     22  C16  11 d         -14.792 205.972 114.873  0.00  0.00     0.236 C 
ATOM     23  O2   11 d         -16.010 205.602 114.763  0.00  0.00    -0.272 OA
ATOM     24  N4   11 d         -13.922 205.793 113.757  0.00  0.00    -0.354 N 
ATOM     25  H15  11 d         -12.898 206.103 113.837  0.00  0.00     0.162 HD
BRANCH  24  26
ATOM     26  C17  11 d         -14.434 205.178 112.492  0.00  0.00     0.187 C 
BRANCH  26  27
ATOM     27  C18  11 d         -14.499 206.127 111.326  0.00  0.00     0.070 A 
ATOM     28  O3   11 d         -13.426 206.513 110.679  0.00  0.00    -0.325 OA
ATOM     29  C19  11 d         -13.817 207.217 109.646  0.00  0.00     0.142 A 
ATOM     30  C20  11 d         -15.196 207.278 109.581  0.00  0.00     0.027 A 
ATOM     31  C21  11 d         -15.644 206.552 110.667  0.00  0.00     0.036 A 
ENDBRANCH  26  27
ENDBRANCH  24  26
ENDBRANCH  21  22
ENDBRANCH  19  21
TORSDOF 4
ENDMDL
MODEL 11
REMARK VINA RESULT:      -8.1      2.612      3.722
REMARK  4 active torsions:
REMARK  status: ('A' for Active; 'I' for Inactive)
REMARK    1  A    between atoms: N3_19  and  C15_20 
REMARK    2  A    between atoms: C15_20  and  C16_21 
REMARK       I    between atoms: C16_21  and  N4_23 
REMARK    3  A    between atoms: N4_23  and  C17_24 
REMARK    4  A    between atoms: C17_24  and  C18_25 
ROOT
ATOM      1  C1   11 d          -7.652 208.811 113.727  0.00  0.00     0.268 A 
ATOM      2  C2   11 d          -8.989 208.513 113.438  0.00  0.00     0.105 A 
ATOM      3  C3   11 d          -9.913 208.405 114.462  0.00  0.00     0.093 A 
ATOM      4  C4   11 d         -11.166 208.095 113.935  0.00  0.00     0.031 A 
ATOM      5  C5   11 d         -11.078 208.009 112.551  0.00  0.00     0.111 A 
ATOM      6  N1   11 d         -12.158 207.721 111.779  0.00  0.00    -0.244 NA
ATOM      7  C6   11 d         -13.383 207.527 112.367  0.00  0.00     0.047 A 
ATOM      8  C7   11 d         -13.510 207.546 113.782  0.00  0.00    -0.009 A 
ATOM      9  C8   11 d         -12.387 207.865 114.578  0.00  0.00     0.028 A 
ATOM     10  C9   11 d         -14.831 207.223 114.438  0.00  0.00     0.209 C 
ATOM     11  O1   11 d         -15.937 207.006 113.511  0.00  0.00    -0.376 OA
ATOM     12  C10  11 d         -15.596 206.306 112.277  0.00  0.00     0.059 C 
ATOM     13  C11  11 d         -14.541 207.125 111.500  0.00  0.00     0.097 C 
ATOM     14  C12  11 d         -16.892 206.235 111.452  0.00  0.00     0.046 C 
ATOM     15  C13  11 d         -15.120 204.862 112.557  0.00  0.00     0.046 C 
ATOM     16  S1   11 d          -9.666 208.269 112.114  0.00  0.00    -0.062 SA
ATOM     17  N2   11 d          -9.549 208.591 115.752  0.00  0.00    -0.241 NA
ATOM     18  C14  11 d          -8.247 208.888 116.042  0.00  0.00     0.213 A 
ATOM     19  N3   11 d          -7.276 208.992 115.056  0.00  0.00    -0.299 N 
ATOM     20  O4   11 d          -6.840 208.923 112.780  0.00  0.00    -0.266 OA
ENDROOT
BRANCH  19  21
ATOM     21  C15  11 d          -5.903 209.293 115.575  0.00  0.00     0.235 C 
BRANCH  21  22
ATOM     22  C16  11 d          -4.590 208.582 115.266  0.00  0.00     0.236 C 
ATOM     23  O2   11 d          -3.461 209.179 115.218  0.00  0.00    -0.272 OA
ATOM     24  N4   11 d          -4.628 207.178 115.018  0.00  0.00    -0.354 N 
ATOM     25  H15  11 d          -5.570 206.665 115.059  0.00  0.00     0.162 HD
BRANCH  24  26
ATOM     26  C17  11 d          -3.369 206.431 114.704  0.00  0.00     0.187 C 
BRANCH  26  27
ATOM     27  C18  11 d          -2.760 205.723 115.883  0.00  0.00     0.070 A 
ATOM     28  O3   11 d          -1.826 204.813 115.745  0.00  0.00    -0.325 OA
ATOM     29  C19  11 d          -1.409 204.487 116.943  0.00  0.00     0.142 A 
ATOM     30  C20  11 d          -2.062 205.225 117.912  0.00  0.00     0.027 A 
ATOM     31  C21  11 d          -2.932 206.045 117.221  0.00  0.00     0.036 A 
ENDBRANCH  26  27
ENDBRANCH  24  26
ENDBRANCH  21  22
ENDBRANCH  19  21
TORSDOF 4
ENDMDL
MODEL 12
REMARK VINA RESULT:      -8.0      8.212     11.832
REMARK  4 active torsions:
REMARK  status: ('A' for Active; 'I' for Inactive)
REMARK    1  A    between atoms: N3_19  and  C15_20 
REMARK    2  A    between atoms: C15_20  and  C16_21 
REMARK       I    between atoms: C16_21  and  N4_23 
REMARK    3  A    between atoms: N4_23  and  C17_24 
REMARK    4  A    between atoms: C17_24  and  C18_25 
ROOT
ATOM      1  C1   11 d         -14.746 204.009 118.047  0.00  0.00     0.268 A 
ATOM      2  C2   11 d         -15.491 204.122 119.227  0.00  0.00     0.105 A 
ATOM      3  C3   11 d         -15.206 205.126 120.135  0.00  0.00     0.093 A 
ATOM      4  C4   11 d         -16.065 205.032 121.228  0.00  0.00     0.031 A 
ATOM      5  C5   11 d         -16.936 203.966 121.042  0.00  0.00     0.111 A 
ATOM      6  N1   11 d         -17.887 203.646 121.957  0.00  0.00    -0.244 NA
ATOM      7  C6   11 d         -18.017 204.401 123.096  0.00  0.00     0.047 A 
ATOM      8  C7   11 d         -17.111 205.465 123.359  0.00  0.00    -0.009 A 
ATOM      9  C8   11 d         -16.136 205.803 122.393  0.00  0.00     0.028 A 
ATOM     10  C9   11 d         -17.178 206.227 124.661  0.00  0.00     0.209 C 
ATOM     11  O1   11 d         -18.286 205.850 125.533  0.00  0.00    -0.376 OA
ATOM     12  C10  11 d         -18.614 204.428 125.554  0.00  0.00     0.059 C 
ATOM     13  C11  11 d         -19.016 203.975 124.132  0.00  0.00     0.097 C 
ATOM     14  C12  11 d         -19.822 204.281 126.494  0.00  0.00     0.046 C 
ATOM     15  C13  11 d         -17.451 203.585 126.125  0.00  0.00     0.046 C 
ATOM     16  S1   11 d         -16.638 203.287 119.736  0.00  0.00    -0.062 SA
ATOM     17  N2   11 d         -14.215 206.018 119.899  0.00  0.00    -0.241 NA
ATOM     18  C14  11 d         -13.488 205.919 118.745  0.00  0.00     0.213 A 
ATOM     19  N3   11 d         -13.721 204.921 117.810  0.00  0.00    -0.299 N 
ATOM     20  O4   11 d         -15.039 203.103 117.233  0.00  0.00    -0.266 OA
ENDROOT
BRANCH  19  21
ATOM     21  C15  11 d         -12.800 204.961 116.628  0.00  0.00     0.235 C 
BRANCH  21  22
ATOM     22  C16  11 d         -12.907 205.812 115.366  0.00  0.00     0.236 C 
ATOM     23  O2   11 d         -11.967 205.915 114.507  0.00  0.00    -0.272 OA
ATOM     24  N4   11 d         -14.119 206.528 115.139  0.00  0.00    -0.354 N 
ATOM     25  H15  11 d         -14.917 206.446 115.853  0.00  0.00     0.162 HD
BRANCH  24  26
ATOM     26  C17  11 d         -14.275 207.382 113.920  0.00  0.00     0.187 C 
BRANCH  26  27
ATOM     27  C18  11 d         -15.244 206.841 112.904  0.00  0.00     0.070 A 
ATOM     28  O3   11 d         -16.361 206.248 113.251  0.00  0.00    -0.325 OA
ATOM     29  C19  11 d         -17.043 206.015 112.158  0.00  0.00     0.142 A 
ATOM     30  C20  11 d         -16.376 206.495 111.046  0.00  0.00     0.027 A 
ATOM     31  C21  11 d         -15.209 207.050 111.533  0.00  0.00     0.036 A 
ENDBRANCH  26  27
ENDBRANCH  24  26
ENDBRANCH  21  22
ENDBRANCH  19  21
TORSDOF 4
ENDMDL
MODEL 13
REMARK VINA RESULT:      -8.0      4.902      6.491
REMARK  4 active torsions:
REMARK  status: ('A' for Active; 'I' for Inactive)
REMARK    1  A    between atoms: N3_19  and  C15_20 
REMARK    2  A    between atoms: C15_20  and  C16_21 
REMARK       I    between atoms: C16_21  and  N4_23 
REMARK    3  A    between atoms: N4_23  and  C17_24 
REMARK    4  A    between atoms: C17_24  and  C18_25 
ROOT
ATOM      1  C1   11 d         -10.880 208.109 115.518  0.00  0.00     0.268 A 
ATOM      2  C2   11 d         -11.600 207.470 116.536  0.00  0.00     0.105 A 
ATOM      3  C3   11 d         -12.388 206.371 116.244  0.00  0.00     0.093 A 
ATOM      4  C4   11 d         -13.010 205.915 117.404  0.00  0.00     0.031 A 
ATOM      5  C5   11 d         -12.625 206.708 118.478  0.00  0.00     0.111 A 
ATOM      6  N1   11 d         -13.082 206.485 119.737  0.00  0.00    -0.244 NA
ATOM      7  C6   11 d         -13.935 205.436 119.976  0.00  0.00     0.047 A 
ATOM      8  C7   11 d         -14.403 204.634 118.900  0.00  0.00    -0.009 A 
ATOM      9  C8   11 d         -13.909 204.861 117.596  0.00  0.00     0.028 A 
ATOM     10  C9   11 d         -15.427 203.550 119.140  0.00  0.00     0.209 C 
ATOM     11  O1   11 d         -15.787 203.349 120.540  0.00  0.00    -0.376 OA
ATOM     12  C10  11 d         -15.870 204.560 121.349  0.00  0.00     0.059 C 
ATOM     13  C11  11 d         -14.494 205.263 121.358  0.00  0.00     0.097 C 
ATOM     14  C12  11 d         -16.214 204.100 122.775  0.00  0.00     0.046 C 
ATOM     15  C13  11 d         -16.998 205.496 120.857  0.00  0.00     0.046 C 
ATOM     16  S1   11 d         -11.684 207.780 118.008  0.00  0.00    -0.062 SA
ATOM     17  N2   11 d         -12.472 205.889 114.981  0.00  0.00    -0.241 NA
ATOM     18  C14  11 d         -11.767 206.503 113.984  0.00  0.00     0.213 A 
ATOM     19  N3   11 d         -10.975 207.619 114.218  0.00  0.00    -0.299 N 
ATOM     20  O4   11 d         -10.159 209.090 115.814  0.00  0.00    -0.266 OA
ENDROOT
BRANCH  19  21
ATOM     21  C15  11 d         -10.308 208.166 112.993  0.00  0.00     0.235 C 
BRANCH  21  22
ATOM     22  C16  11 d          -8.828 208.455 112.764  0.00  0.00     0.236 C 
ATOM     23  O2   11 d          -8.215 208.164 111.681  0.00  0.00    -0.272 OA
ATOM     24  N4   11 d          -8.095 209.080 113.814  0.00  0.00    -0.354 N 
ATOM     25  H15  11 d          -8.600 209.333 114.728  0.00  0.00     0.162 HD
BRANCH  24  26
ATOM     26  C17  11 d          -6.638 209.382 113.644  0.00  0.00     0.187 C 
BRANCH  26  27
ATOM     27  C18  11 d          -5.719 208.310 114.164  0.00  0.00     0.070 A 
ATOM     28  O3   11 d          -4.697 207.870 113.472  0.00  0.00    -0.325 OA
ATOM     29  C19  11 d          -4.021 207.051 114.238  0.00  0.00     0.142 A 
ATOM     30  C20  11 d          -4.591 206.964 115.494  0.00  0.00     0.027 A 
ATOM     31  C21  11 d          -5.690 207.799 115.454  0.00  0.00     0.036 A 
ENDBRANCH  26  27
ENDBRANCH  24  26
ENDBRANCH  21  22
ENDBRANCH  19  21
TORSDOF 4
ENDMDL
MODEL 14
REMARK VINA RESULT:      -7.9      8.478     12.145
REMARK  4 active torsions:
REMARK  status: ('A' for Active; 'I' for Inactive)
REMARK    1  A    between atoms: N3_19  and  C15_20 
REMARK    2  A    between atoms: C15_20  and  C16_21 
REMARK       I    between atoms: C16_21  and  N4_23 
REMARK    3  A    between atoms: N4_23  and  C17_24 
REMARK    4  A    between atoms: C17_24  and  C18_25 
ROOT
ATOM      1  C1   11 d         -15.516 203.912 120.929  0.00  0.00     0.268 A 
ATOM      2  C2   11 d         -14.902 204.387 119.764  0.00  0.00     0.105 A 
ATOM      3  C3   11 d         -14.135 205.538 119.803  0.00  0.00     0.093 A 
ATOM      4  C4   11 d         -13.638 205.817 118.531  0.00  0.00     0.031 A 
ATOM      5  C5   11 d         -14.065 204.838 117.643  0.00  0.00     0.111 A 
ATOM      6  N1   11 d         -13.723 204.862 116.329  0.00  0.00    -0.244 NA
ATOM      7  C6   11 d         -12.915 205.864 115.853  0.00  0.00     0.047 A 
ATOM      8  C7   11 d         -12.501 206.919 116.711  0.00  0.00    -0.009 A 
ATOM      9  C8   11 d         -12.846 206.878 118.081  0.00  0.00     0.028 A 
ATOM     10  C9   11 d         -11.706 208.083 116.169  0.00  0.00     0.209 C 
ATOM     11  O1   11 d         -11.329 207.963 114.764  0.00  0.00    -0.376 OA
ATOM     12  C10  11 d         -12.329 207.354 113.894  0.00  0.00     0.059 C 
ATOM     13  C11  11 d         -12.622 205.917 114.382  0.00  0.00     0.097 C 
ATOM     14  C12  11 d         -11.700 207.295 112.493  0.00  0.00     0.046 C 
ATOM     15  C13  11 d         -13.613 208.212 113.814  0.00  0.00     0.046 C 
ATOM     16  S1   11 d         -14.919 203.834 118.362  0.00  0.00    -0.062 SA
ATOM     17  N2   11 d         -13.959 206.219 120.960  0.00  0.00    -0.241 NA
ATOM     18  C14  11 d         -14.550 205.758 122.103  0.00  0.00     0.213 A 
ATOM     19  N3   11 d         -15.343 204.619 122.117  0.00  0.00    -0.299 N 
ATOM     20  O4   11 d         -16.188 202.856 120.870  0.00  0.00    -0.266 OA
ENDROOT
BRANCH  19  21
ATOM     21  C15  11 d         -15.926 204.294 123.458  0.00  0.00     0.235 C 
BRANCH  21  22
ATOM     22  C16  11 d         -17.393 204.276 123.879  0.00  0.00     0.236 C 
ATOM     23  O2   11 d         -17.774 204.148 125.092  0.00  0.00    -0.272 OA
ATOM     24  N4   11 d         -18.385 204.410 122.864  0.00  0.00    -0.354 N 
ATOM     25  H15  11 d         -18.077 204.522 121.842  0.00  0.00     0.162 HD
BRANCH  24  26
ATOM     26  C17  11 d         -19.839 204.394 123.222  0.00  0.00     0.187 C 
BRANCH  26  27
ATOM     27  C18  11 d         -20.510 203.062 123.025  0.00  0.00     0.070 A 
ATOM     28  O3   11 d         -20.250 202.294 121.995  0.00  0.00    -0.325 OA
ATOM     29  C19  11 d         -20.879 201.159 122.176  0.00  0.00     0.142 A 
ATOM     30  C20  11 d         -21.557 201.156 123.381  0.00  0.00     0.027 A 
ATOM     31  C21  11 d         -21.303 202.391 123.945  0.00  0.00     0.036 A 
ENDBRANCH  26  27
ENDBRANCH  24  26
ENDBRANCH  21  22
ENDBRANCH  19  21
TORSDOF 4
ENDMDL
MODEL 15
REMARK VINA RESULT:      -7.9      7.192      8.661
REMARK  4 active torsions:
REMARK  status: ('A' for Active; 'I' for Inactive)
REMARK    1  A    between atoms: N3_19  and  C15_20 
REMARK    2  A    between atoms: C15_20  and  C16_21 
REMARK       I    between atoms: C16_21  and  N4_23 
REMARK    3  A    between atoms: N4_23  and  C17_24 
REMARK    4  A    between atoms: C17_24  and  C18_25 
ROOT
ATOM      1  C1   11 d         -11.376 206.131 118.888  0.00  0.00     0.268 A 
ATOM      2  C2   11 d         -11.945 206.307 117.621  0.00  0.00     0.105 A 
ATOM      3  C3   11 d         -13.286 206.031 117.418  0.00  0.00     0.093 A 
ATOM      4  C4   11 d         -13.620 206.270 116.086  0.00  0.00     0.031 A 
ATOM      5  C5   11 d         -12.499 206.719 115.401  0.00  0.00     0.111 A 
ATOM      6  N1   11 d         -12.540 207.032 114.080  0.00  0.00    -0.244 NA
ATOM      7  C6   11 d         -13.724 206.925 113.392  0.00  0.00     0.047 A 
ATOM      8  C7   11 d         -14.883 206.414 114.036  0.00  0.00    -0.009 A 
ATOM      9  C8   11 d         -14.836 206.109 115.415  0.00  0.00     0.028 A 
ATOM     10  C9   11 d         -16.157 206.189 113.257  0.00  0.00     0.209 C 
ATOM     11  O1   11 d         -16.110 206.633 111.867  0.00  0.00    -0.376 OA
ATOM     12  C10  11 d         -14.841 206.417 111.180  0.00  0.00     0.059 C 
ATOM     13  C11  11 d         -13.724 207.193 111.916  0.00  0.00     0.097 C 
ATOM     14  C12  11 d         -15.015 206.996 109.767  0.00  0.00     0.046 C 
ATOM     15  C13  11 d         -14.514 204.912 111.051  0.00  0.00     0.046 C 
ATOM     16  S1   11 d         -11.323 206.779 116.333  0.00  0.00    -0.062 SA
ATOM     17  N2   11 d         -14.070 205.597 118.433  0.00  0.00    -0.241 NA
ATOM     18  C14  11 d         -13.523 205.429 119.674  0.00  0.00     0.213 A 
ATOM     19  N3   11 d         -12.180 205.674 119.929  0.00  0.00    -0.299 N 
ATOM     20  O4   11 d         -10.164 206.407 119.049  0.00  0.00    -0.266 OA
ENDROOT
BRANCH  19  21
ATOM     21  C15  11 d         -11.765 205.402 121.342  0.00  0.00     0.235 C 
BRANCH  21  22
ATOM     22  C16  11 d         -12.601 204.844 122.490  0.00  0.00     0.236 C 
ATOM     23  O2   11 d         -13.113 205.572 123.406  0.00  0.00    -0.272 OA
ATOM     24  N4   11 d         -12.817 203.435 122.540  0.00  0.00    -0.354 N 
ATOM     25  H15  11 d         -12.394 202.813 121.774  0.00  0.00     0.162 HD
BRANCH  24  26
ATOM     26  C17  11 d         -13.625 202.833 123.647  0.00  0.00     0.187 C 
BRANCH  26  27
ATOM     27  C18  11 d         -12.903 201.774 124.434  0.00  0.00     0.070 A 
ATOM     28  O3   11 d         -13.174 200.498 124.302  0.00  0.00    -0.325 OA
ATOM     29  C19  11 d         -12.296 199.830 125.008  0.00  0.00     0.142 A 
ATOM     30  C20  11 d         -11.390 200.683 125.608  0.00  0.00     0.027 A 
ATOM     31  C21  11 d         -11.773 201.952 125.220  0.00  0.00     0.036 A 
ENDBRANCH  26  27
ENDBRANCH  24  26
ENDBRANCH  21  22
ENDBRANCH  19  21
TORSDOF 4
ENDMDL
MODEL 16
REMARK VINA RESULT:      -7.8      8.089     10.537
REMARK  4 active torsions:
REMARK  status: ('A' for Active; 'I' for Inactive)
REMARK    1  A    between atoms: N3_19  and  C15_20 
REMARK    2  A    between atoms: C15_20  and  C16_21 
REMARK       I    between atoms: C16_21  and  N4_23 
REMARK    3  A    between atoms: N4_23  and  C17_24 
REMARK    4  A    between atoms: C17_24  and  C18_25 
ROOT
ATOM      1  C1   11 d         -14.383 204.208 118.038  0.00  0.00     0.268 A 
ATOM      2  C2   11 d         -15.163 204.315 119.195  0.00  0.00     0.105 A 
ATOM      3  C3   11 d         -14.836 205.241 120.170  0.00  0.00     0.093 A 
ATOM      4  C4   11 d         -15.744 205.158 121.224  0.00  0.00     0.031 A 
ATOM      5  C5   11 d         -16.689 204.179 120.944  0.00  0.00     0.111 A 
ATOM      6  N1   11 d         -17.699 203.887 121.804  0.00  0.00    -0.244 NA
ATOM      7  C6   11 d         -17.815 204.586 122.980  0.00  0.00     0.047 A 
ATOM      8  C7   11 d         -16.838 205.555 123.337  0.00  0.00    -0.009 A 
ATOM      9  C8   11 d         -15.801 205.866 122.428  0.00  0.00     0.028 A 
ATOM     10  C9   11 d         -16.897 206.247 124.678  0.00  0.00     0.209 C 
ATOM     11  O1   11 d         -18.067 205.914 125.486  0.00  0.00    -0.376 OA
ATOM     12  C10  11 d         -18.508 204.525 125.412  0.00  0.00     0.059 C 
ATOM     13  C11  11 d         -18.886 204.187 123.952  0.00  0.00     0.097 C 
ATOM     14  C12  11 d         -19.761 204.426 126.297  0.00  0.00     0.046 C 
ATOM     15  C13  11 d         -17.439 203.559 125.974  0.00  0.00     0.046 C 
ATOM     16  S1   11 d         -16.393 203.551 119.613  0.00  0.00    -0.062 SA
ATOM     17  N2   11 d         -13.769 206.061 120.022  0.00  0.00    -0.241 NA
ATOM     18  C14  11 d         -13.006 205.966 118.892  0.00  0.00     0.213 A 
ATOM     19  N3   11 d         -13.279 205.044 117.892  0.00  0.00    -0.299 N 
ATOM     20  O4   11 d         -14.713 203.374 117.162  0.00  0.00    -0.266 OA
ENDROOT
BRANCH  19  21
ATOM     21  C15  11 d         -12.311 205.074 116.749  0.00  0.00     0.235 C 
BRANCH  21  22
ATOM     22  C16  11 d         -12.413 205.841 115.434  0.00  0.00     0.236 C 
ATOM     23  O2   11 d         -13.514 206.286 114.963  0.00  0.00    -0.272 OA
ATOM     24  N4   11 d         -11.214 206.070 114.695  0.00  0.00    -0.354 N 
ATOM     25  H15  11 d         -10.282 205.704 115.082  0.00  0.00     0.162 HD
BRANCH  24  26
ATOM     26  C17  11 d         -11.258 206.812 113.396  0.00  0.00     0.187 C 
BRANCH  26  27
ATOM     27  C18  11 d         -10.316 207.983 113.320  0.00  0.00     0.070 A 
ATOM     28  O3   11 d          -9.866 208.588 114.392  0.00  0.00    -0.325 OA
ATOM     29  C19  11 d          -8.972 209.465 114.008  0.00  0.00     0.142 A 
ATOM     30  C20  11 d          -8.795 209.424 112.638  0.00  0.00     0.027 A 
ATOM     31  C21  11 d          -9.659 208.445 112.189  0.00  0.00     0.036 A 
ENDBRANCH  26  27
ENDBRANCH  24  26
ENDBRANCH  21  22
ENDBRANCH  19  21
TORSDOF 4
ENDMDL
MODEL 17
REMARK VINA RESULT:      -7.8      3.663      4.613
REMARK  4 active torsions:
REMARK  status: ('A' for Active; 'I' for Inactive)
REMARK    1  A    between atoms: N3_19  and  C15_20 
REMARK    2  A    between atoms: C15_20  and  C16_21 
REMARK       I    between atoms: C16_21  and  N4_23 
REMARK    3  A    between atoms: N4_23  and  C17_24 
REMARK    4  A    between atoms: C17_24  and  C18_25 
ROOT
ATOM      1  C1   11 d         -10.602 206.332 119.485  0.00  0.00     0.268 A 
ATOM      2  C2   11 d         -11.202 206.246 118.224  0.00  0.00     0.105 A 
ATOM      3  C3   11 d         -10.631 206.885 117.138  0.00  0.00     0.093 A 
ATOM      4  C4   11 d         -11.406 206.666 116.000  0.00  0.00     0.031 A 
ATOM      5  C5   11 d         -12.493 205.865 116.327  0.00  0.00     0.111 A 
ATOM      6  N1   11 d         -13.414 205.492 115.403  0.00  0.00    -0.244 NA
ATOM      7  C6   11 d         -13.271 205.891 114.098  0.00  0.00     0.047 A 
ATOM      8  C7   11 d         -12.208 206.759 113.727  0.00  0.00    -0.009 A 
ATOM      9  C8   11 d         -11.243 207.129 114.691  0.00  0.00     0.028 A 
ATOM     10  C9   11 d         -12.108 207.292 112.318  0.00  0.00     0.209 C 
ATOM     11  O1   11 d         -13.105 206.763 111.392  0.00  0.00    -0.376 OA
ATOM     12  C10  11 d         -14.436 206.554 111.953  0.00  0.00     0.059 C 
ATOM     13  C11  11 d         -14.348 205.538 113.114  0.00  0.00     0.097 C 
ATOM     14  C12  11 d         -15.290 205.959 110.821  0.00  0.00     0.046 C 
ATOM     15  C13  11 d         -15.081 207.888 112.396  0.00  0.00     0.046 C 
ATOM     16  S1   11 d         -12.454 205.529 117.790  0.00  0.00    -0.062 SA
ATOM     17  N2   11 d          -9.485 207.594 117.270  0.00  0.00    -0.241 NA
ATOM     18  C14  11 d          -8.890 207.678 118.497  0.00  0.00     0.213 A 
ATOM     19  N3   11 d          -9.429 207.071 119.623  0.00  0.00    -0.299 N 
ATOM     20  O4   11 d         -11.129 205.727 120.448  0.00  0.00    -0.266 OA
ENDROOT
BRANCH  19  21
ATOM     21  C15  11 d          -8.647 207.303 120.880  0.00  0.00     0.235 C 
BRANCH  21  22
ATOM     22  C16  11 d          -8.260 208.629 121.529  0.00  0.00     0.236 C 
ATOM     23  O2   11 d          -9.033 209.645 121.566  0.00  0.00    -0.272 OA
ATOM     24  N4   11 d          -6.969 208.733 122.124  0.00  0.00    -0.354 N 
ATOM     25  H15  11 d          -6.312 207.883 122.103  0.00  0.00     0.162 HD
BRANCH  24  26
ATOM     26  C17  11 d          -6.536 210.012 122.771  0.00  0.00     0.187 C 
BRANCH  26  27
ATOM     27  C18  11 d          -6.033 211.053 121.808  0.00  0.00     0.070 A 
ATOM     28  O3   11 d          -5.657 212.245 122.202  0.00  0.00    -0.325 OA
ATOM     29  C19  11 d          -5.149 212.864 121.166  0.00  0.00     0.142 A 
ATOM     30  C20  11 d          -5.156 212.049 120.050  0.00  0.00     0.027 A 
ATOM     31  C21  11 d          -5.717 210.859 120.471  0.00  0.00     0.036 A 
ENDBRANCH  26  27
ENDBRANCH  24  26
ENDBRANCH  21  22
ENDBRANCH  19  21
TORSDOF 4
ENDMDL
MODEL 18
REMARK VINA RESULT:      -7.6      6.759     10.367
REMARK  4 active torsions:
REMARK  status: ('A' for Active; 'I' for Inactive)
REMARK    1  A    between atoms: N3_19  and  C15_20 
REMARK    2  A    between atoms: C15_20  and  C16_21 
REMARK       I    between atoms: C16_21  and  N4_23 
REMARK    3  A    between atoms: N4_23  and  C17_24 
REMARK    4  A    between atoms: C17_24  and  C18_25 
ROOT
ATOM      1  C1   11 d         -14.119 206.143 119.295  0.00  0.00     0.268 A 
ATOM      2  C2   11 d         -14.141 206.326 117.907  0.00  0.00     0.105 A 
ATOM      3  C3   11 d         -14.478 205.275 117.073  0.00  0.00     0.093 A 
ATOM      4  C4   11 d         -14.423 205.690 115.744  0.00  0.00     0.031 A 
ATOM      5  C5   11 d         -14.058 207.030 115.693  0.00  0.00     0.111 A 
ATOM      6  N1   11 d         -13.930 207.695 114.516  0.00  0.00    -0.244 NA
ATOM      7  C6   11 d         -14.185 207.045 113.334  0.00  0.00     0.047 A 
ATOM      8  C7   11 d         -14.503 205.660 113.333  0.00  0.00    -0.009 A 
ATOM      9  C8   11 d         -14.653 204.979 114.562  0.00  0.00     0.028 A 
ATOM     10  C9   11 d         -14.674 204.913 112.032  0.00  0.00     0.209 C 
ATOM     11  O1   11 d         -14.592 205.744 110.835  0.00  0.00    -0.376 OA
ATOM     12  C10  11 d         -13.607 206.819 110.882  0.00  0.00     0.059 C 
ATOM     13  C11  11 d         -13.952 207.777 112.045  0.00  0.00     0.097 C 
ATOM     14  C12  11 d         -13.732 207.575 109.548  0.00  0.00     0.046 C 
ATOM     15  C13  11 d         -12.167 206.267 110.993  0.00  0.00     0.046 C 
ATOM     16  S1   11 d         -13.843 207.553 117.084  0.00  0.00    -0.062 SA
ATOM     17  N2   11 d         -14.799 204.060 117.578  0.00  0.00    -0.241 NA
ATOM     18  C14  11 d         -14.786 203.876 118.932  0.00  0.00     0.213 A 
ATOM     19  N3   11 d         -14.438 204.890 119.812  0.00  0.00    -0.299 N 
ATOM     20  O4   11 d         -13.829 207.117 120.028  0.00  0.00    -0.266 OA
ENDROOT
BRANCH  19  21
ATOM     21  C15  11 d         -14.454 204.483 121.254  0.00  0.00     0.235 C 
BRANCH  21  22
ATOM     22  C16  11 d         -15.643 204.394 122.207  0.00  0.00     0.236 C 
ATOM     23  O2   11 d         -15.662 203.640 123.237  0.00  0.00    -0.272 OA
ATOM     24  N4   11 d         -16.788 205.196 121.927  0.00  0.00    -0.354 N 
ATOM     25  H15  11 d         -16.782 205.837 121.065  0.00  0.00     0.162 HD
BRANCH  24  26
ATOM     26  C17  11 d         -17.985 205.143 122.826  0.00  0.00     0.187 C 
BRANCH  26  27
ATOM     27  C18  11 d         -19.146 204.368 122.266  0.00  0.00     0.070 A 
ATOM     28  O3   11 d         -19.390 204.307 120.980  0.00  0.00    -0.325 OA
ATOM     29  C19  11 d         -20.370 203.456 120.801  0.00  0.00     0.142 A 
ATOM     30  C20  11 d         -20.774 202.907 122.003  0.00  0.00     0.027 A 
ATOM     31  C21  11 d         -19.964 203.487 122.959  0.00  0.00     0.036 A 
ENDBRANCH  26  27
ENDBRANCH  24  26
ENDBRANCH  21  22
ENDBRANCH  19  21
TORSDOF 4
ENDMDL
MODEL 19
REMARK VINA RESULT:      -7.6      2.784      3.463
REMARK  4 active torsions:
REMARK  status: ('A' for Active; 'I' for Inactive)
REMARK    1  A    between atoms: N3_19  and  C15_20 
REMARK    2  A    between atoms: C15_20  and  C16_21 
REMARK       I    between atoms: C16_21  and  N4_23 
REMARK    3  A    between atoms: N4_23  and  C17_24 
REMARK    4  A    between atoms: C17_24  and  C18_25 
ROOT
ATOM      1  C1   11 d          -7.677 208.781 113.946  0.00  0.00     0.268 A 
ATOM      2  C2   11 d          -9.006 208.495 113.610  0.00  0.00     0.105 A 
ATOM      3  C3   11 d          -9.965 208.389 114.602  0.00  0.00     0.093 A 
ATOM      4  C4   11 d         -11.201 208.091 114.032  0.00  0.00     0.031 A 
ATOM      5  C5   11 d         -11.068 208.009 112.652  0.00  0.00     0.111 A 
ATOM      6  N1   11 d         -12.122 207.732 111.843  0.00  0.00    -0.244 NA
ATOM      7  C6   11 d         -13.368 207.544 112.388  0.00  0.00     0.047 A 
ATOM      8  C7   11 d         -13.543 207.560 113.798  0.00  0.00    -0.009 A 
ATOM      9  C8   11 d         -12.444 207.867 114.632  0.00  0.00     0.028 A 
ATOM     10  C9   11 d         -14.888 207.243 114.408  0.00  0.00     0.209 C 
ATOM     11  O1   11 d         -15.963 207.038 113.443  0.00  0.00    -0.376 OA
ATOM     12  C10  11 d         -15.586 206.340 112.219  0.00  0.00     0.059 C 
ATOM     13  C11  11 d         -14.499 207.153 111.481  0.00  0.00     0.097 C 
ATOM     14  C12  11 d         -16.853 206.282 111.351  0.00  0.00     0.046 C 
ATOM     15  C13  11 d         -15.130 204.891 112.509  0.00  0.00     0.046 C 
ATOM     16  S1   11 d          -9.639 208.260 112.263  0.00  0.00    -0.062 SA
ATOM     17  N2   11 d          -9.643 208.568 115.905  0.00  0.00    -0.241 NA
ATOM     18  C14  11 d          -8.349 208.855 116.239  0.00  0.00     0.213 A 
ATOM     19  N3   11 d          -7.345 208.955 115.287  0.00  0.00    -0.299 N 
ATOM     20  O4   11 d          -6.833 208.891 113.026  0.00  0.00    -0.266 OA
ENDROOT
BRANCH  19  21
ATOM     21  C15  11 d          -5.989 209.245 115.854  0.00  0.00     0.235 C 
BRANCH  21  22
ATOM     22  C16  11 d          -5.165 208.409 116.829  0.00  0.00     0.236 C 
ATOM     23  O2   11 d          -4.224 207.627 116.463  0.00  0.00    -0.272 OA
ATOM     24  N4   11 d          -5.466 208.508 118.219  0.00  0.00    -0.354 N 
ATOM     25  H15  11 d          -6.253 209.165 118.539  0.00  0.00     0.162 HD
BRANCH  24  26
ATOM     26  C17  11 d          -4.693 207.706 119.219  0.00  0.00     0.187 C 
BRANCH  26  27
ATOM     27  C18  11 d          -5.303 206.370 119.546  0.00  0.00     0.070 A 
ATOM     28  O3   11 d          -6.575 206.234 119.830  0.00  0.00    -0.325 OA
ATOM     29  C19  11 d          -6.825 204.952 119.932  0.00  0.00     0.142 A 
ATOM     30  C20  11 d          -5.690 204.205 119.677  0.00  0.00     0.027 A 
ATOM     31  C21  11 d          -4.699 205.129 119.407  0.00  0.00     0.036 A 
ENDBRANCH  26  27
ENDBRANCH  24  26
ENDBRANCH  21  22
ENDBRANCH  19  21
TORSDOF 4
ENDMDL
MODEL 20
REMARK VINA RESULT:      -7.4      8.592     12.145
REMARK  4 active torsions:
REMARK  status: ('A' for Active; 'I' for Inactive)
REMARK    1  A    between atoms: N3_19  and  C15_20 
REMARK    2  A    between atoms: C15_20  and  C16_21 
REMARK       I    between atoms: C16_21  and  N4_23 
REMARK    3  A    between atoms: N4_23  and  C17_24 
REMARK    4  A    between atoms: C17_24  and  C18_25 
ROOT
ATOM      1  C1   11 d         -13.787 205.606 119.095  0.00  0.00     0.268 A 
ATOM      2  C2   11 d         -14.396 205.596 120.355  0.00  0.00     0.105 A 
ATOM      3  C3   11 d         -15.419 204.704 120.625  0.00  0.00     0.093 A 
ATOM      4  C4   11 d         -15.873 204.886 121.930  0.00  0.00     0.031 A 
ATOM      5  C5   11 d         -15.139 205.898 122.538  0.00  0.00     0.111 A 
ATOM      6  N1   11 d         -15.371 206.283 123.819  0.00  0.00    -0.244 NA
ATOM      7  C6   11 d         -16.340 205.650 124.556  0.00  0.00     0.047 A 
ATOM      8  C7   11 d         -17.156 204.650 123.959  0.00  0.00    -0.009 A 
ATOM      9  C8   11 d         -16.897 204.242 122.631  0.00  0.00     0.028 A 
ATOM     10  C9   11 d         -18.297 204.030 124.729  0.00  0.00     0.209 C 
ATOM     11  O1   11 d         -18.402 204.462 126.119  0.00  0.00    -0.376 OA
ATOM     12  C10  11 d         -18.093 205.866 126.367  0.00  0.00     0.059 C 
ATOM     13  C11  11 d         -16.636 206.151 125.939  0.00  0.00     0.097 C 
ATOM     14  C12  11 d         -18.227 206.073 127.885  0.00  0.00     0.046 C 
ATOM     15  C13  11 d         -19.100 206.803 125.659  0.00  0.00     0.046 C 
ATOM     16  S1   11 d         -14.127 206.443 121.572  0.00  0.00    -0.062 SA
ATOM     17  N2   11 d         -15.842 203.824 119.686  0.00  0.00    -0.241 NA
ATOM     18  C14  11 d         -15.247 203.824 118.456  0.00  0.00     0.213 A 
ATOM     19  N3   11 d         -14.229 204.708 118.127  0.00  0.00    -0.299 N 
ATOM     20  O4   11 d         -12.850 206.411 118.884  0.00  0.00    -0.266 OA
ENDROOT
BRANCH  19  21
ATOM     21  C15  11 d         -13.728 204.572 116.722  0.00  0.00     0.235 C 
BRANCH  21  22
ATOM     22  C16  11 d         -13.754 205.603 115.597  0.00  0.00     0.236 C 
ATOM     23  O2   11 d         -12.767 205.814 114.815  0.00  0.00    -0.272 OA
ATOM     24  N4   11 d         -14.944 206.366 115.414  0.00  0.00    -0.354 N 
ATOM     25  H15  11 d         -15.782 206.195 116.062  0.00  0.00     0.162 HD
BRANCH  24  26
ATOM     26  C17  11 d         -15.022 207.395 114.328  0.00  0.00     0.187 C 
BRANCH  26  27
ATOM     27  C18  11 d         -15.570 206.880 113.026  0.00  0.00     0.070 A 
ATOM     28  O3   11 d         -16.811 206.479 112.900  0.00  0.00    -0.325 OA
ATOM     29  C19  11 d         -17.020 206.222 111.632  0.00  0.00     0.142 A 
ATOM     30  C20  11 d         -15.891 206.490 110.881  0.00  0.00     0.027 A 
ATOM     31  C21  11 d         -14.949 206.936 111.786  0.00  0.00     0.036 A 
ENDBRANCH  26  27
ENDBRANCH  24  26
ENDBRANCH  21  22
ENDBRANCH  19  21
TORSDOF 4
ENDMDL
