MODEL 1
REMARK VINA RESULT:      -9.6      0.000      0.000
REMARK  4 active torsions:
REMARK  status: ('A' for Active; 'I' for Inactive)
REMARK    1  A    between atoms: C1_1  and  C2_2 
REMARK    2  A    between atoms: C2_2  and  C3_5 
REMARK    3  A    between atoms: N1_3  and  O1_4 
REMARK    4  A    between atoms: C3_5  and  C4_6 
ROOT
ATOM      1  C1   11 d         -10.652 207.926 112.461  0.00  0.00     0.026 A 
ATOM      2  C10  11 d         -11.360 208.048 113.666  0.00  0.00     0.021 A 
ATOM      3  N2   11 d         -10.535 208.581 114.613  0.00  0.00    -0.353 N 
ATOM      4  C11  11 d          -9.307 208.729 114.066  0.00  0.00     0.045 A 
ATOM      5  C12  11 d          -9.349 208.324 112.742  0.00  0.00     0.005 A 
ATOM      6  C13  11 d          -8.192 208.329 111.944  0.00  0.00     0.014 A 
ATOM      7  C14  11 d          -6.989 208.796 112.509  0.00  0.00     0.001 A 
ATOM      8  C15  11 d          -6.952 209.236 113.849  0.00  0.00     0.002 A 
ATOM      9  C16  11 d          -8.115 209.202 114.642  0.00  0.00     0.030 A 
ATOM     10  C17  11 d         -10.882 208.821 116.019  0.00  0.00     0.156 C 
ATOM     11  C18  11 d         -12.849 207.886 113.816  0.00  0.00     0.069 C 
ENDROOT
BRANCH   1  12
ATOM     12  C2   11 d         -11.197 207.442 111.160  0.00  0.00     0.078 C 
ATOM     13  N1   11 d         -10.958 208.192 110.104  0.00  0.00    -0.140 NA
BRANCH  13  14
ATOM     14  O1   11 d         -11.508 207.771 108.977  0.00  0.00    -0.266 OA
ATOM     15  H1   11 d         -11.445 206.800 108.714  0.00  0.00     0.247 HD
ENDBRANCH  13  14
BRANCH  12  16
ATOM     16  C3   11 d         -12.002 206.144 111.101  0.00  0.00     0.101 C 
BRANCH  16  17
ATOM     17  C4   11 d         -13.516 206.243 111.099  0.00  0.00    -0.052 A 
ATOM     18  C5   11 d         -14.239 205.224 111.756  0.00  0.00     0.007 A 
ATOM     19  C6   11 d         -15.641 205.249 111.793  0.00  0.00     0.001 A 
ATOM     20  C7   11 d         -16.341 206.289 111.168  0.00  0.00     0.000 A 
ATOM     21  C8   11 d         -15.639 207.304 110.506  0.00  0.00     0.001 A 
ATOM     22  C9   11 d         -14.237 207.283 110.468  0.00  0.00     0.007 A 
ENDBRANCH  16  17
ENDBRANCH  12  16
ENDBRANCH   1  12
TORSDOF 4
ENDMDL
MODEL 2
REMARK VINA RESULT:      -9.6      2.319      3.704
REMARK  4 active torsions:
REMARK  status: ('A' for Active; 'I' for Inactive)
REMARK    1  A    between atoms: C1_1  and  C2_2 
REMARK    2  A    between atoms: C2_2  and  C3_5 
REMARK    3  A    between atoms: N1_3  and  O1_4 
REMARK    4  A    between atoms: C3_5  and  C4_6 
ROOT
ATOM      1  C1   11 d         -11.701 207.565 114.254  0.00  0.00     0.026 A 
ATOM      2  C10  11 d         -10.700 208.260 114.951  0.00  0.00     0.021 A 
ATOM      3  N2   11 d          -9.816 208.781 114.052  0.00  0.00    -0.353 N 
ATOM      4  C11  11 d         -10.183 208.374 112.815  0.00  0.00     0.045 A 
ATOM      5  C12  11 d         -11.337 207.615 112.913  0.00  0.00     0.005 A 
ATOM      6  C13  11 d         -11.916 207.023 111.776  0.00  0.00     0.014 A 
ATOM      7  C14  11 d         -11.318 207.254 110.522  0.00  0.00     0.001 A 
ATOM      8  C15  11 d         -10.158 208.051 110.419  0.00  0.00     0.002 A 
ATOM      9  C16  11 d          -9.578 208.617 111.570  0.00  0.00     0.030 A 
ATOM     10  C17  11 d          -8.600 209.535 114.380  0.00  0.00     0.156 C 
ATOM     11  C18  11 d         -10.747 208.611 116.413  0.00  0.00     0.069 C 
ENDROOT
BRANCH   1  12
ATOM     12  C2   11 d         -12.891 206.894 114.852  0.00  0.00     0.078 C 
ATOM     13  N1   11 d         -12.670 205.773 115.507  0.00  0.00    -0.140 NA
BRANCH  13  14
ATOM     14  O1   11 d         -13.751 205.169 115.971  0.00  0.00    -0.266 OA
ATOM     15  H1   11 d         -13.707 204.633 116.823  0.00  0.00     0.247 HD
ENDBRANCH  13  14
BRANCH  12  16
ATOM     16  C3   11 d         -14.283 207.501 114.676  0.00  0.00     0.101 C 
BRANCH  16  17
ATOM     17  C4   11 d         -15.101 207.073 113.471  0.00  0.00    -0.052 A 
ATOM     18  C5   11 d         -14.860 207.735 112.248  0.00  0.00     0.007 A 
ATOM     19  C6   11 d         -15.580 207.393 111.094  0.00  0.00     0.001 A 
ATOM     20  C7   11 d         -16.555 206.388 111.146  0.00  0.00     0.000 A 
ATOM     21  C8   11 d         -16.810 205.725 112.354  0.00  0.00     0.001 A 
ATOM     22  C9   11 d         -16.091 206.064 113.510  0.00  0.00     0.007 A 
ENDBRANCH  16  17
ENDBRANCH  12  16
ENDBRANCH   1  12
TORSDOF 4
ENDMDL
MODEL 3
REMARK VINA RESULT:      -9.4      0.674      2.852
REMARK  4 active torsions:
REMARK  status: ('A' for Active; 'I' for Inactive)
REMARK    1  A    between atoms: C1_1  and  C2_2 
REMARK    2  A    between atoms: C2_2  and  C3_5 
REMARK    3  A    between atoms: N1_3  and  O1_4 
REMARK    4  A    between atoms: C3_5  and  C4_6 
ROOT
ATOM      1  C1   11 d         -10.758 207.861 112.538  0.00  0.00     0.026 A 
ATOM      2  C10  11 d          -9.498 208.385 112.863  0.00  0.00     0.021 A 
ATOM      3  N2   11 d          -9.439 208.594 114.211  0.00  0.00    -0.353 N 
ATOM      4  C11  11 d         -10.649 208.290 114.736  0.00  0.00     0.045 A 
ATOM      5  C12  11 d         -11.483 207.845 113.725  0.00  0.00     0.005 A 
ATOM      6  C13  11 d         -12.821 207.503 113.984  0.00  0.00     0.014 A 
ATOM      7  C14  11 d         -13.289 207.584 115.310  0.00  0.00     0.001 A 
ATOM      8  C15  11 d         -12.431 208.010 116.347  0.00  0.00     0.002 A 
ATOM      9  C16  11 d         -11.099 208.371 116.065  0.00  0.00     0.030 A 
ATOM     10  C17  11 d          -8.310 209.177 114.943  0.00  0.00     0.156 C 
ATOM     11  C18  11 d          -8.316 208.441 111.934  0.00  0.00     0.069 C 
ENDROOT
BRANCH   1  12
ATOM     12  C2   11 d         -11.216 207.438 111.183  0.00  0.00     0.078 C 
ATOM     13  N1   11 d         -10.909 208.235 110.180  0.00  0.00    -0.140 NA
BRANCH  13  14
ATOM     14  O1   11 d         -11.383 207.866 109.002  0.00  0.00    -0.266 OA
ATOM     15  H1   11 d         -12.357 208.004 108.782  0.00  0.00     0.247 HD
ENDBRANCH  13  14
BRANCH  12  16
ATOM     16  C3   11 d         -12.016 206.146 111.012  0.00  0.00     0.101 C 
BRANCH  16  17
ATOM     17  C4   11 d         -13.530 206.233 111.056  0.00  0.00    -0.052 A 
ATOM     18  C5   11 d         -14.228 205.174 111.677  0.00  0.00     0.007 A 
ATOM     19  C6   11 d         -15.628 205.186 111.753  0.00  0.00     0.001 A 
ATOM     20  C7   11 d         -16.352 206.252 111.205  0.00  0.00     0.000 A 
ATOM     21  C8   11 d         -15.675 207.308 110.580  0.00  0.00     0.001 A 
ATOM     22  C9   11 d         -14.274 207.301 110.504  0.00  0.00     0.007 A 
ENDBRANCH  16  17
ENDBRANCH  12  16
ENDBRANCH   1  12
TORSDOF 4
ENDMDL
MODEL 4
REMARK VINA RESULT:      -9.0      4.001      6.779
REMARK  4 active torsions:
REMARK  status: ('A' for Active; 'I' for Inactive)
REMARK    1  A    between atoms: C1_1  and  C2_2 
REMARK    2  A    between atoms: C2_2  and  C3_5 
REMARK    3  A    between atoms: N1_3  and  O1_4 
REMARK    4  A    between atoms: C3_5  and  C4_6 
ROOT
ATOM      1  C1   11 d         -13.489 206.984 114.151  0.00  0.00     0.026 A 
ATOM      2  C10  11 d         -12.378 207.120 113.305  0.00  0.00     0.021 A 
ATOM      3  N2   11 d         -12.780 206.938 112.013  0.00  0.00    -0.353 N 
ATOM      4  C11  11 d         -14.095 206.617 112.023  0.00  0.00     0.045 A 
ATOM      5  C12  11 d         -14.554 206.629 113.329  0.00  0.00     0.005 A 
ATOM      6  C13  11 d         -15.882 206.286 113.636  0.00  0.00     0.014 A 
ATOM      7  C14  11 d         -16.753 205.966 112.576  0.00  0.00     0.001 A 
ATOM      8  C15  11 d         -16.293 205.981 111.243  0.00  0.00     0.002 A 
ATOM      9  C16  11 d         -14.953 206.305 110.955  0.00  0.00     0.030 A 
ATOM     10  C17  11 d         -11.910 206.951 110.832  0.00  0.00     0.156 C 
ATOM     11  C18  11 d         -11.033 207.652 113.719  0.00  0.00     0.069 C 
ENDROOT
BRANCH   1  12
ATOM     12  C2   11 d         -13.500 207.163 115.631  0.00  0.00     0.078 C 
ATOM     13  N1   11 d         -14.043 208.273 116.088  0.00  0.00    -0.140 NA
BRANCH  13  14
ATOM     14  O1   11 d         -13.980 208.432 117.400  0.00  0.00    -0.266 OA
ATOM     15  H1   11 d         -14.685 208.968 117.880  0.00  0.00     0.247 HD
ENDBRANCH  13  14
BRANCH  12  16
ATOM     16  C3   11 d         -12.884 206.097 116.537  0.00  0.00     0.101 C 
BRANCH  16  17
ATOM     17  C4   11 d         -13.822 205.171 117.289  0.00  0.00    -0.052 A 
ATOM     18  C5   11 d         -14.568 204.241 116.534  0.00  0.00     0.007 A 
ATOM     19  C6   11 d         -15.456 203.355 117.162  0.00  0.00     0.001 A 
ATOM     20  C7   11 d         -15.615 203.390 118.553  0.00  0.00     0.000 A 
ATOM     21  C8   11 d         -14.887 204.311 119.317  0.00  0.00     0.001 A 
ATOM     22  C9   11 d         -13.997 205.197 118.692  0.00  0.00     0.007 A 
ENDBRANCH  16  17
ENDBRANCH  12  16
ENDBRANCH   1  12
TORSDOF 4
ENDMDL
MODEL 5
REMARK VINA RESULT:      -9.0      2.834      3.861
REMARK  4 active torsions:
REMARK  status: ('A' for Active; 'I' for Inactive)
REMARK    1  A    between atoms: C1_1  and  C2_2 
REMARK    2  A    between atoms: C2_2  and  C3_5 
REMARK    3  A    between atoms: N1_3  and  O1_4 
REMARK    4  A    between atoms: C3_5  and  C4_6 
ROOT
ATOM      1  C1   11 d         -12.947 207.080 115.666  0.00  0.00     0.026 A 
ATOM      2  C10  11 d         -12.456 207.497 116.914  0.00  0.00     0.021 A 
ATOM      3  N2   11 d         -11.262 208.132 116.730  0.00  0.00    -0.353 N 
ATOM      4  C11  11 d         -10.946 208.062 115.416  0.00  0.00     0.045 A 
ATOM      5  C12  11 d         -11.964 207.410 114.740  0.00  0.00     0.005 A 
ATOM      6  C13  11 d         -11.873 207.157 113.360  0.00  0.00     0.014 A 
ATOM      7  C14  11 d         -10.738 207.620 112.666  0.00  0.00     0.001 A 
ATOM      8  C15  11 d          -9.715 208.310 113.350  0.00  0.00     0.002 A 
ATOM      9  C16  11 d          -9.810 208.534 114.737  0.00  0.00     0.030 A 
ATOM     10  C17  11 d         -10.404 208.672 117.790  0.00  0.00     0.156 C 
ATOM     11  C18  11 d         -13.241 207.497 118.197  0.00  0.00     0.069 C 
ENDROOT
BRANCH   1  12
ATOM     12  C2   11 d         -14.249 206.399 115.412  0.00  0.00     0.078 C 
ATOM     13  N1   11 d         -14.470 205.281 116.073  0.00  0.00    -0.140 NA
BRANCH  13  14
ATOM     14  O1   11 d         -15.604 204.668 115.778  0.00  0.00    -0.266 OA
ATOM     15  H1   11 d         -15.649 203.661 115.767  0.00  0.00     0.247 HD
ENDBRANCH  13  14
BRANCH  12  16
ATOM     16  C3   11 d         -15.242 206.993 114.413  0.00  0.00     0.101 C 
BRANCH  16  17
ATOM     17  C4   11 d         -15.053 206.672 112.942  0.00  0.00    -0.052 A 
ATOM     18  C5   11 d         -14.731 205.341 112.599  0.00  0.00     0.007 A 
ATOM     19  C6   11 d         -14.540 204.972 111.259  0.00  0.00     0.001 A 
ATOM     20  C7   11 d         -14.663 205.928 110.243  0.00  0.00     0.000 A 
ATOM     21  C8   11 d         -14.977 207.254 110.567  0.00  0.00     0.001 A 
ATOM     22  C9   11 d         -15.169 207.627 111.906  0.00  0.00     0.007 A 
ENDBRANCH  16  17
ENDBRANCH  12  16
ENDBRANCH   1  12
TORSDOF 4
ENDMDL
MODEL 6
REMARK VINA RESULT:      -8.8      2.339      3.473
REMARK  4 active torsions:
REMARK  status: ('A' for Active; 'I' for Inactive)
REMARK    1  A    between atoms: C1_1  and  C2_2 
REMARK    2  A    between atoms: C2_2  and  C3_5 
REMARK    3  A    between atoms: N1_3  and  O1_4 
REMARK    4  A    between atoms: C3_5  and  C4_6 
ROOT
ATOM      1  C1   11 d         -11.509 207.953 114.633  0.00  0.00     0.026 A 
ATOM      2  C10  11 d         -10.463 208.307 115.500  0.00  0.00     0.021 A 
ATOM      3  N2   11 d          -9.374 208.662 114.759  0.00  0.00    -0.353 N 
ATOM      4  C11  11 d          -9.673 208.471 113.453  0.00  0.00     0.045 A 
ATOM      5  C12  11 d         -10.980 208.025 113.349  0.00  0.00     0.005 A 
ATOM      6  C13  11 d         -11.539 207.701 112.101  0.00  0.00     0.014 A 
ATOM      7  C14  11 d         -10.752 207.880 110.946  0.00  0.00     0.001 A 
ATOM      8  C15  11 d          -9.429 208.362 111.050  0.00  0.00     0.002 A 
ATOM      9  C16  11 d          -8.876 208.659 112.311  0.00  0.00     0.030 A 
ATOM     10  C17  11 d          -8.062 209.049 115.290  0.00  0.00     0.156 C 
ATOM     11  C18  11 d         -10.605 208.530 116.981  0.00  0.00     0.069 C 
ENDROOT
BRANCH   1  12
ATOM     12  C2   11 d         -12.890 207.558 115.029  0.00  0.00     0.078 C 
ATOM     13  N1   11 d         -13.558 208.413 115.777  0.00  0.00    -0.140 NA
BRANCH  13  14
ATOM     14  O1   11 d         -14.755 208.007 116.165  0.00  0.00    -0.266 OA
ATOM     15  H1   11 d         -15.528 208.015 115.519  0.00  0.00     0.247 HD
ENDBRANCH  13  14
BRANCH  12  16
ATOM     16  C3   11 d         -13.461 206.211 114.585  0.00  0.00     0.101 C 
BRANCH  16  17
ATOM     17  C4   11 d         -14.203 206.152 113.263  0.00  0.00    -0.052 A 
ATOM     18  C5   11 d         -14.933 207.294 112.870  0.00  0.00     0.007 A 
ATOM     19  C6   11 d         -15.644 207.311 111.661  0.00  0.00     0.001 A 
ATOM     20  C7   11 d         -15.641 206.184 110.830  0.00  0.00     0.000 A 
ATOM     21  C8   11 d         -14.927 205.039 111.207  0.00  0.00     0.001 A 
ATOM     22  C9   11 d         -14.213 205.020 112.415  0.00  0.00     0.007 A 
ENDBRANCH  16  17
ENDBRANCH  12  16
ENDBRANCH   1  12
TORSDOF 4
ENDMDL
MODEL 7
REMARK VINA RESULT:      -8.6      2.623      4.545
REMARK  4 active torsions:
REMARK  status: ('A' for Active; 'I' for Inactive)
REMARK    1  A    between atoms: C1_1  and  C2_2 
REMARK    2  A    between atoms: C2_2  and  C3_5 
REMARK    3  A    between atoms: N1_3  and  O1_4 
REMARK    4  A    between atoms: C3_5  and  C4_6 
ROOT
ATOM      1  C1   11 d         -12.019 207.240 115.253  0.00  0.00     0.026 A 
ATOM      2  C10  11 d         -11.149 208.102 115.939  0.00  0.00     0.021 A 
ATOM      3  N2   11 d         -11.202 207.816 117.272  0.00  0.00    -0.353 N 
ATOM      4  C11  11 d         -12.134 206.853 117.459  0.00  0.00     0.045 A 
ATOM      5  C12  11 d         -12.659 206.487 116.231  0.00  0.00     0.005 A 
ATOM      6  C13  11 d         -13.686 205.531 116.136  0.00  0.00     0.014 A 
ATOM      7  C14  11 d         -14.145 204.920 117.318  0.00  0.00     0.001 A 
ATOM      8  C15  11 d         -13.590 205.271 118.567  0.00  0.00     0.002 A 
ATOM      9  C16  11 d         -12.578 206.248 118.647  0.00  0.00     0.030 A 
ATOM     10  C17  11 d         -10.479 208.525 118.333  0.00  0.00     0.156 C 
ATOM     11  C18  11 d         -10.125 208.994 115.292  0.00  0.00     0.069 C 
ENDROOT
BRANCH   1  12
ATOM     12  C2   11 d         -12.219 207.178 113.777  0.00  0.00     0.078 C 
ATOM     13  N1   11 d         -11.405 206.392 113.102  0.00  0.00    -0.140 NA
BRANCH  13  14
ATOM     14  O1   11 d         -11.566 206.408 111.790  0.00  0.00    -0.266 OA
ATOM     15  H1   11 d         -10.925 206.922 111.206  0.00  0.00     0.247 HD
ENDBRANCH  13  14
BRANCH  12  16
ATOM     16  C3   11 d         -13.316 208.013 113.116  0.00  0.00     0.101 C 
BRANCH  16  17
ATOM     17  C4   11 d         -14.563 207.299 112.630  0.00  0.00    -0.052 A 
ATOM     18  C5   11 d         -14.841 207.335 111.246  0.00  0.00     0.007 A 
ATOM     19  C6   11 d         -15.976 206.698 110.726  0.00  0.00     0.001 A 
ATOM     20  C7   11 d         -16.855 206.019 111.581  0.00  0.00     0.000 A 
ATOM     21  C8   11 d         -16.597 205.979 112.958  0.00  0.00     0.001 A 
ATOM     22  C9   11 d         -15.461 206.614 113.482  0.00  0.00     0.007 A 
ENDBRANCH  16  17
ENDBRANCH  12  16
ENDBRANCH   1  12
TORSDOF 4
ENDMDL
MODEL 8
REMARK VINA RESULT:      -8.6      3.795      5.680
REMARK  4 active torsions:
REMARK  status: ('A' for Active; 'I' for Inactive)
REMARK    1  A    between atoms: C1_1  and  C2_2 
REMARK    2  A    between atoms: C2_2  and  C3_5 
REMARK    3  A    between atoms: N1_3  and  O1_4 
REMARK    4  A    between atoms: C3_5  and  C4_6 
ROOT
ATOM      1  C1   11 d         -13.338 207.101 113.771  0.00  0.00     0.026 A 
ATOM      2  C10  11 d         -14.333 206.549 112.948  0.00  0.00     0.021 A 
ATOM      3  N2   11 d         -13.847 206.441 111.677  0.00  0.00    -0.353 N 
ATOM      4  C11  11 d         -12.604 206.977 111.655  0.00  0.00     0.045 A 
ATOM      5  C12  11 d         -12.271 207.400 112.931  0.00  0.00     0.005 A 
ATOM      6  C13  11 d         -11.046 208.040 113.187  0.00  0.00     0.014 A 
ATOM      7  C14  11 d         -10.141 208.208 112.121  0.00  0.00     0.001 A 
ATOM      8  C15  11 d         -10.469 207.751 110.826  0.00  0.00     0.002 A 
ATOM      9  C16  11 d         -11.710 207.133 110.582  0.00  0.00     0.030 A 
ATOM     10  C17  11 d         -14.592 205.958 110.510  0.00  0.00     0.156 C 
ATOM     11  C18  11 d         -15.611 205.923 113.435  0.00  0.00     0.069 C 
ENDROOT
BRANCH   1  12
ATOM     12  C2   11 d         -13.436 207.334 115.240  0.00  0.00     0.078 C 
ATOM     13  N1   11 d         -14.134 208.383 115.627  0.00  0.00    -0.140 NA
BRANCH  13  14
ATOM     14  O1   11 d         -14.149 208.599 116.931  0.00  0.00    -0.266 OA
ATOM     15  H1   11 d         -13.300 208.523 117.468  0.00  0.00     0.247 HD
ENDBRANCH  13  14
BRANCH  12  16
ATOM     16  C3   11 d         -12.733 206.389 116.215  0.00  0.00     0.101 C 
BRANCH  16  17
ATOM     17  C4   11 d         -13.592 205.463 117.056  0.00  0.00    -0.052 A 
ATOM     18  C5   11 d         -14.316 204.454 116.385  0.00  0.00     0.007 A 
ATOM     19  C6   11 d         -15.131 203.563 117.098  0.00  0.00     0.001 A 
ATOM     20  C7   11 d         -15.240 203.670 118.490  0.00  0.00     0.000 A 
ATOM     21  C8   11 d         -14.532 204.670 119.171  0.00  0.00     0.001 A 
ATOM     22  C9   11 d         -13.715 205.562 118.461  0.00  0.00     0.007 A 
ENDBRANCH  16  17
ENDBRANCH  12  16
ENDBRANCH   1  12
TORSDOF 4
ENDMDL
MODEL 9
REMARK VINA RESULT:      -8.5      2.812      6.816
REMARK  4 active torsions:
REMARK  status: ('A' for Active; 'I' for Inactive)
REMARK    1  A    between atoms: C1_1  and  C2_2 
REMARK    2  A    between atoms: C2_2  and  C3_5 
REMARK    3  A    between atoms: N1_3  and  O1_4 
REMARK    4  A    between atoms: C3_5  and  C4_6 
ROOT
ATOM      1  C1   11 d         -13.218 207.242 113.479  0.00  0.00     0.026 A 
ATOM      2  C10  11 d         -12.012 207.327 112.766  0.00  0.00     0.021 A 
ATOM      3  N2   11 d         -12.283 207.284 111.429  0.00  0.00    -0.353 N 
ATOM      4  C11  11 d         -13.615 207.097 111.276  0.00  0.00     0.045 A 
ATOM      5  C12  11 d         -14.213 207.058 112.524  0.00  0.00     0.005 A 
ATOM      6  C13  11 d         -15.592 206.828 112.662  0.00  0.00     0.014 A 
ATOM      7  C14  11 d         -16.367 206.677 111.495  0.00  0.00     0.001 A 
ATOM      8  C15  11 d         -15.763 206.746 110.222  0.00  0.00     0.002 A 
ATOM      9  C16  11 d         -14.375 206.954 110.102  0.00  0.00     0.030 A 
ATOM     10  C17  11 d         -11.290 207.296 110.349  0.00  0.00     0.156 C 
ATOM     11  C18  11 d         -10.678 207.689 113.360  0.00  0.00     0.069 C 
ENDROOT
BRANCH   1  12
ATOM     12  C2   11 d         -13.375 207.310 114.959  0.00  0.00     0.078 C 
ATOM     13  N1   11 d         -13.923 208.405 115.446  0.00  0.00    -0.140 NA
BRANCH  13  14
ATOM     14  O1   11 d         -13.990 208.463 116.765  0.00  0.00    -0.266 OA
ATOM     15  H1   11 d         -13.416 209.116 117.274  0.00  0.00     0.247 HD
ENDBRANCH  13  14
BRANCH  12  16
ATOM     16  C3   11 d         -12.896 206.152 115.836  0.00  0.00     0.101 C 
BRANCH  16  17
ATOM     17  C4   11 d         -11.847 206.443 116.892  0.00  0.00    -0.052 A 
ATOM     18  C5   11 d         -11.969 205.785 118.135  0.00  0.00     0.007 A 
ATOM     19  C6   11 d         -11.036 206.007 119.159  0.00  0.00     0.001 A 
ATOM     20  C7   11 d          -9.972 206.895 118.958  0.00  0.00     0.000 A 
ATOM     21  C8   11 d          -9.839 207.561 117.733  0.00  0.00     0.001 A 
ATOM     22  C9   11 d         -10.769 207.340 116.706  0.00  0.00     0.007 A 
ENDBRANCH  16  17
ENDBRANCH  12  16
ENDBRANCH   1  12
TORSDOF 4
ENDMDL
MODEL 10
REMARK VINA RESULT:      -8.4      3.038      6.047
REMARK  4 active torsions:
REMARK  status: ('A' for Active; 'I' for Inactive)
REMARK    1  A    between atoms: C1_1  and  C2_2 
REMARK    2  A    between atoms: C2_2  and  C3_5 
REMARK    3  A    between atoms: N1_3  and  O1_4 
REMARK    4  A    between atoms: C3_5  and  C4_6 
ROOT
ATOM      1  C1   11 d         -11.677 207.523 113.603  0.00  0.00     0.026 A 
ATOM      2  C10  11 d         -10.913 207.714 112.441  0.00  0.00     0.021 A 
ATOM      3  N2   11 d         -11.654 207.341 111.357  0.00  0.00    -0.353 N 
ATOM      4  C11  11 d         -12.833 206.848 111.804  0.00  0.00     0.045 A 
ATOM      5  C12  11 d         -12.868 206.940 113.185  0.00  0.00     0.005 A 
ATOM      6  C13  11 d         -13.966 206.456 113.918  0.00  0.00     0.014 A 
ATOM      7  C14  11 d         -15.054 205.908 113.212  0.00  0.00     0.001 A 
ATOM      8  C15  11 d         -15.031 205.841 111.802  0.00  0.00     0.002 A 
ATOM      9  C16  11 d         -13.914 206.309 111.085  0.00  0.00     0.030 A 
ATOM     10  C17  11 d         -11.200 207.342 109.963  0.00  0.00     0.156 C 
ATOM     11  C18  11 d          -9.611 208.465 112.373  0.00  0.00     0.069 C 
ENDROOT
BRANCH   1  12
ATOM     12  C2   11 d         -11.265 207.859 114.996  0.00  0.00     0.078 C 
ATOM     13  N1   11 d         -11.145 209.139 115.285  0.00  0.00    -0.140 NA
BRANCH  13  14
ATOM     14  O1   11 d         -10.717 209.403 116.507  0.00  0.00    -0.266 OA
ATOM     15  H1   11 d         -10.134 210.207 116.678  0.00  0.00     0.247 HD
ENDBRANCH  13  14
BRANCH  12  16
ATOM     16  C3   11 d         -10.987 206.743 116.004  0.00  0.00     0.101 C 
BRANCH  16  17
ATOM     17  C4   11 d         -12.131 206.274 116.882  0.00  0.00    -0.052 A 
ATOM     18  C5   11 d         -12.596 204.953 116.702  0.00  0.00     0.007 A 
ATOM     19  C6   11 d         -13.651 204.452 117.478  0.00  0.00     0.001 A 
ATOM     20  C7   11 d         -14.263 205.265 118.441  0.00  0.00     0.000 A 
ATOM     21  C8   11 d         -13.818 206.580 118.628  0.00  0.00     0.001 A 
ATOM     22  C9   11 d         -12.761 207.084 117.856  0.00  0.00     0.007 A 
ENDBRANCH  16  17
ENDBRANCH  12  16
ENDBRANCH   1  12
TORSDOF 4
ENDMDL
