MODEL 1
REMARK VINA RESULT:      -6.4      0.000      0.000
REMARK  2 active torsions:
REMARK  status: ('A' for Active; 'I' for Inactive)
REMARK    1  A    between atoms: C1_1  and  C2_2 
REMARK       I    between atoms: C1_1  and  N1_10 
REMARK    2  A    between atoms: N1_10  and  C8_11 
ROOT
ATOM      1  C1   11 d           5.624  42.784  50.042  0.00  0.00     0.257 C 
ATOM      2  O1   11 d           6.329  41.714  50.079  0.00  0.00    -0.267 OA
ATOM      3  N1   11 d           4.316  42.729  49.458  0.00  0.00    -0.301 N 
ATOM      4  H5   11 d           3.694  43.598  49.407  0.00  0.00     0.171 HD
ENDROOT
BRANCH   1   5
ATOM      5  C2   11 d           6.210  44.043  50.620  0.00  0.00     0.032 A 
ATOM      6  C3   11 d           7.463  44.499  50.141  0.00  0.00     0.018 A 
ATOM      7  C4   11 d           8.053  45.666  50.649  0.00  0.00     0.020 A 
ATOM      8  C5   11 d           7.403  46.405  51.646  0.00  0.00     0.011 A 
ATOM      9 Br1   11 d           8.214  48.009  52.344  0.00  0.00    -0.051 Br
ATOM     10  C6   11 d           6.163  45.975  52.133  0.00  0.00     0.020 A 
ATOM     11  C7   11 d           5.569  44.806  51.627  0.00  0.00     0.018 A 
ENDBRANCH   1   5
BRANCH   3  12
ATOM     12  C8   11 d           3.759  41.495  48.900  0.00  0.00     0.173 A 
ATOM     13  N2   11 d           3.063  40.541  49.566  0.00  0.00    -0.236 NA
ATOM     14  C9   11 d           2.704  39.539  48.720  0.00  0.00     0.126 A 
ATOM     15  C10  11 d           3.152  39.790  47.432  0.00  0.00     0.072 A 
ATOM     16  S1   11 d           3.879  41.096  47.460  0.00  0.00    -0.062 SA
ENDBRANCH   3  12
TORSDOF 2
ENDMDL
MODEL 2
REMARK VINA RESULT:      -6.4      1.206      1.830
REMARK  2 active torsions:
REMARK  status: ('A' for Active; 'I' for Inactive)
REMARK    1  A    between atoms: C1_1  and  C2_2 
REMARK       I    between atoms: C1_1  and  N1_10 
REMARK    2  A    between atoms: N1_10  and  C8_11 
ROOT
ATOM      1  C1   11 d           6.023  43.545  50.190  0.00  0.00     0.257 C 
ATOM      2  O1   11 d           6.888  42.677  49.812  0.00  0.00    -0.267 OA
ATOM      3  N1   11 d           4.639  43.308  49.905  0.00  0.00    -0.301 N 
ATOM      4  H5   11 d           3.884  44.005  50.203  0.00  0.00     0.171 HD
ENDROOT
BRANCH   1   5
ATOM      5  C2   11 d           6.512  44.767  50.918  0.00  0.00     0.032 A 
ATOM      6  C3   11 d           5.682  45.356  51.903  0.00  0.00     0.018 A 
ATOM      7  C4   11 d           6.093  46.497  52.609  0.00  0.00     0.020 A 
ATOM      8  C5   11 d           7.341  47.075  52.346  0.00  0.00     0.011 A 
ATOM      9 Br1   11 d           7.905  48.643  53.316  0.00  0.00    -0.051 Br
ATOM     10  C6   11 d           8.179  46.508  51.378  0.00  0.00     0.020 A 
ATOM     11  C7   11 d           7.772  45.365  50.670  0.00  0.00     0.018 A 
ENDBRANCH   1   5
BRANCH   3  12
ATOM     12  C8   11 d           4.178  42.113  49.196  0.00  0.00     0.173 A 
ATOM     13  N2   11 d           4.343  41.830  47.881  0.00  0.00    -0.236 NA
ATOM     14  C9   11 d           3.783  40.629  47.580  0.00  0.00     0.126 A 
ATOM     15  C10  11 d           3.211  40.050  48.703  0.00  0.00     0.072 A 
ATOM     16  S1   11 d           3.430  40.987  49.846  0.00  0.00    -0.062 SA
ENDBRANCH   3  12
TORSDOF 2
ENDMDL
MODEL 3
REMARK VINA RESULT:      -6.4      1.989      2.443
REMARK  2 active torsions:
REMARK  status: ('A' for Active; 'I' for Inactive)
REMARK    1  A    between atoms: C1_1  and  C2_2 
REMARK       I    between atoms: C1_1  and  N1_10 
REMARK    2  A    between atoms: N1_10  and  C8_11 
ROOT
ATOM      1  C1   11 d           5.593  44.419  51.395  0.00  0.00     0.257 C 
ATOM      2  O1   11 d           6.094  44.207  50.234  0.00  0.00    -0.267 OA
ATOM      3  N1   11 d           4.457  43.650  51.808  0.00  0.00    -0.301 N 
ATOM      4  H5   11 d           4.008  43.794  52.768  0.00  0.00     0.171 HD
ENDROOT
BRANCH   1   5
ATOM      5  C2   11 d           6.232  45.468  52.265  0.00  0.00     0.032 A 
ATOM      6  C3   11 d           7.203  46.330  51.699  0.00  0.00     0.018 A 
ATOM      7  C4   11 d           7.828  47.323  52.469  0.00  0.00     0.020 A 
ATOM      8  C5   11 d           7.496  47.476  53.821  0.00  0.00     0.011 A 
ATOM      9 Br1   11 d           8.356  48.840  54.878  0.00  0.00    -0.051 Br
ATOM     10  C6   11 d           6.537  46.637  54.401  0.00  0.00     0.020 A 
ATOM     11  C7   11 d           5.909  45.642  53.633  0.00  0.00     0.018 A 
ENDBRANCH   1   5
BRANCH   3  12
ATOM     12  C8   11 d           3.847  42.632  50.950  0.00  0.00     0.173 A 
ATOM     13  N2   11 d           4.292  41.369  50.741  0.00  0.00    -0.236 NA
ATOM     14  C9   11 d           3.468  40.711  49.883  0.00  0.00     0.126 A 
ATOM     15  C10  11 d           2.420  41.525  49.477  0.00  0.00     0.072 A 
ATOM     16  S1   11 d           2.596  42.846  50.151  0.00  0.00    -0.062 SA
ENDBRANCH   3  12
TORSDOF 2
ENDMDL
MODEL 4
REMARK VINA RESULT:      -6.3      1.904      2.446
REMARK  2 active torsions:
REMARK  status: ('A' for Active; 'I' for Inactive)
REMARK    1  A    between atoms: C1_1  and  C2_2 
REMARK       I    between atoms: C1_1  and  N1_10 
REMARK    2  A    between atoms: N1_10  and  C8_11 
ROOT
ATOM      1  C1   11 d           4.746  43.939  51.840  0.00  0.00     0.257 C 
ATOM      2  O1   11 d           3.760  43.533  52.553  0.00  0.00    -0.267 OA
ATOM      3  N1   11 d           4.932  43.376  50.536  0.00  0.00    -0.301 N 
ATOM      4  H5   11 d           5.740  43.685  49.908  0.00  0.00     0.171 HD
ENDROOT
BRANCH   1   5
ATOM      5  C2   11 d           5.655  44.991  52.416  0.00  0.00     0.032 A 
ATOM      6  C3   11 d           5.689  45.174  53.819  0.00  0.00     0.018 A 
ATOM      7  C4   11 d           6.519  46.142  54.405  0.00  0.00     0.020 A 
ATOM      8  C5   11 d           7.333  46.949  53.600  0.00  0.00     0.011 A 
ATOM      9 Br1   11 d           8.473  48.280  54.404  0.00  0.00    -0.051 Br
ATOM     10  C6   11 d           7.317  46.784  52.209  0.00  0.00     0.020 A 
ATOM     11  C7   11 d           6.488  45.815  51.620  0.00  0.00     0.018 A 
ENDBRANCH   1   5
BRANCH   3  12
ATOM     12  C8   11 d           4.037  42.353  49.989  0.00  0.00     0.173 A 
ATOM     13  N2   11 d           4.068  41.023  50.245  0.00  0.00    -0.236 NA
ATOM     14  C9   11 d           3.083  40.385  49.559  0.00  0.00     0.126 A 
ATOM     15  C10  11 d           2.341  41.282  48.804  0.00  0.00     0.072 A 
ATOM     16  S1   11 d           2.918  42.641  49.034  0.00  0.00    -0.062 SA
ENDBRANCH   3  12
TORSDOF 2
ENDMDL
MODEL 5
REMARK VINA RESULT:      -6.2      4.847      7.396
REMARK  2 active torsions:
REMARK  status: ('A' for Active; 'I' for Inactive)
REMARK    1  A    between atoms: C1_1  and  C2_2 
REMARK       I    between atoms: C1_1  and  N1_10 
REMARK    2  A    between atoms: N1_10  and  C8_11 
ROOT
ATOM      1  C1   11 d           6.452  45.541  51.984  0.00  0.00     0.257 C 
ATOM      2  O1   11 d           7.010  46.372  51.184  0.00  0.00    -0.267 OA
ATOM      3  N1   11 d           6.562  45.761  53.396  0.00  0.00    -0.301 N 
ATOM      4  H5   11 d           6.112  45.092  54.099  0.00  0.00     0.171 HD
ENDROOT
BRANCH   1   5
ATOM      5  C2   11 d           5.705  44.376  51.393  0.00  0.00     0.032 A 
ATOM      6  C3   11 d           4.519  43.930  52.025  0.00  0.00     0.018 A 
ATOM      7  C4   11 d           3.787  42.847  51.514  0.00  0.00     0.020 A 
ATOM      8  C5   11 d           4.225  42.187  50.359  0.00  0.00     0.011 A 
ATOM      9 Br1   11 d           3.220  40.699  49.656  0.00  0.00    -0.051 Br
ATOM     10  C6   11 d           5.394  42.612  49.715  0.00  0.00     0.020 A 
ATOM     11  C7   11 d           6.128  43.696  50.225  0.00  0.00     0.018 A 
ENDBRANCH   1   5
BRANCH   3  12
ATOM     12  C8   11 d           7.292  46.900  53.956  0.00  0.00     0.173 A 
ATOM     13  N2   11 d           8.635  47.018  54.098  0.00  0.00    -0.236 NA
ATOM     14  C9   11 d           8.949  48.217  54.657  0.00  0.00     0.126 A 
ATOM     15  C10  11 d           7.807  48.961  54.914  0.00  0.00     0.072 A 
ATOM     16  S1   11 d           6.636  48.146  54.471  0.00  0.00    -0.062 SA
ENDBRANCH   3  12
TORSDOF 2
ENDMDL
MODEL 6
REMARK VINA RESULT:      -6.1      4.732      5.217
REMARK  2 active torsions:
REMARK  status: ('A' for Active; 'I' for Inactive)
REMARK    1  A    between atoms: C1_1  and  C2_2 
REMARK       I    between atoms: C1_1  and  N1_10 
REMARK    2  A    between atoms: N1_10  and  C8_11 
ROOT
ATOM      1  C1   11 d           3.519  45.259  53.035  0.00  0.00     0.257 C 
ATOM      2  O1   11 d           2.802  45.511  52.002  0.00  0.00    -0.267 OA
ATOM      3  N1   11 d           2.919  44.570  54.139  0.00  0.00    -0.301 N 
ATOM      4  H5   11 d           3.480  44.339  55.019  0.00  0.00     0.171 HD
ENDROOT
BRANCH   1   5
ATOM      5  C2   11 d           4.957  45.700  53.028  0.00  0.00     0.032 A 
ATOM      6  C3   11 d           5.607  45.938  54.263  0.00  0.00     0.018 A 
ATOM      7  C4   11 d           6.947  46.352  54.310  0.00  0.00     0.020 A 
ATOM      8  C5   11 d           7.667  46.538  53.124  0.00  0.00     0.011 A 
ATOM      9 Br1   11 d           9.508  47.107  53.188  0.00  0.00    -0.051 Br
ATOM     10  C6   11 d           7.045  46.307  51.890  0.00  0.00     0.020 A 
ATOM     11  C7   11 d           5.704  45.892  51.840  0.00  0.00     0.018 A 
ENDBRANCH   1   5
BRANCH   3  12
ATOM     12  C8   11 d           1.518  44.146  54.130  0.00  0.00     0.173 A 
ATOM     13  N2   11 d           1.008  43.029  53.557  0.00  0.00    -0.236 NA
ATOM     14  C9   11 d          -0.336  42.965  53.753  0.00  0.00     0.126 A 
ATOM     15  C10  11 d          -0.785  44.059  54.479  0.00  0.00     0.072 A 
ATOM     16  S1   11 d           0.404  44.913  54.778  0.00  0.00    -0.062 SA
ENDBRANCH   3  12
TORSDOF 2
ENDMDL
MODEL 7
REMARK VINA RESULT:      -6.1      5.128      5.887
REMARK  2 active torsions:
REMARK  status: ('A' for Active; 'I' for Inactive)
REMARK    1  A    between atoms: C1_1  and  C2_2 
REMARK       I    between atoms: C1_1  and  N1_10 
REMARK    2  A    between atoms: N1_10  and  C8_11 
ROOT
ATOM      1  C1   11 d           3.519  46.029  53.856  0.00  0.00     0.257 C 
ATOM      2  O1   11 d           2.702  46.982  53.594  0.00  0.00    -0.267 OA
ATOM      3  N1   11 d           3.006  44.818  54.425  0.00  0.00    -0.301 N 
ATOM      4  H5   11 d           3.651  43.998  54.659  0.00  0.00     0.171 HD
ENDROOT
BRANCH   1   5
ATOM      5  C2   11 d           4.977  46.235  53.546  0.00  0.00     0.032 A 
ATOM      6  C3   11 d           5.870  46.516  54.608  0.00  0.00     0.018 A 
ATOM      7  C4   11 d           7.238  46.717  54.371  0.00  0.00     0.020 A 
ATOM      8  C5   11 d           7.744  46.643  53.067  0.00  0.00     0.011 A 
ATOM      9 Br1   11 d           9.624  46.921  52.741  0.00  0.00    -0.051 Br
ATOM     10  C6   11 d           6.879  46.365  52.001  0.00  0.00     0.020 A 
ATOM     11  C7   11 d           5.509  46.162  52.236  0.00  0.00     0.018 A 
ENDBRANCH   1   5
BRANCH   3  12
ATOM     12  C8   11 d           1.584  44.632  54.720  0.00  0.00     0.173 A 
ATOM     13  N2   11 d           0.902  45.118  55.786  0.00  0.00    -0.236 NA
ATOM     14  C9   11 d          -0.403  44.743  55.726  0.00  0.00     0.126 A 
ATOM     15  C10  11 d          -0.649  43.976  54.596  0.00  0.00     0.072 A 
ATOM     16  S1   11 d           0.642  43.849  53.855  0.00  0.00    -0.062 SA
ENDBRANCH   3  12
TORSDOF 2
ENDMDL
MODEL 8
REMARK VINA RESULT:      -6.1      4.608      7.020
REMARK  2 active torsions:
REMARK  status: ('A' for Active; 'I' for Inactive)
REMARK    1  A    between atoms: C1_1  and  C2_2 
REMARK       I    between atoms: C1_1  and  N1_10 
REMARK    2  A    between atoms: N1_10  and  C8_11 
ROOT
ATOM      1  C1   11 d           5.493  44.907  52.475  0.00  0.00     0.257 C 
ATOM      2  O1   11 d           5.297  44.594  53.703  0.00  0.00    -0.267 OA
ATOM      3  N1   11 d           6.067  46.185  52.172  0.00  0.00    -0.301 N 
ATOM      4  H5   11 d           6.248  46.487  51.162  0.00  0.00     0.171 HD
ENDROOT
BRANCH   1   5
ATOM      5  C2   11 d           5.110  43.910  51.416  0.00  0.00     0.032 A 
ATOM      6  C3   11 d           6.052  43.580  50.411  0.00  0.00     0.018 A 
ATOM      7  C4   11 d           5.742  42.657  49.401  0.00  0.00     0.020 A 
ATOM      8  C5   11 d           4.484  42.042  49.373  0.00  0.00     0.011 A 
ATOM      9 Br1   11 d           4.058  40.774  47.984  0.00  0.00    -0.051 Br
ATOM     10  C6   11 d           3.537  42.351  50.357  0.00  0.00     0.020 A 
ATOM     11  C7   11 d           3.845  43.275  51.371  0.00  0.00     0.018 A 
ENDBRANCH   1   5
BRANCH   3  12
ATOM     12  C8   11 d           6.436  47.145  53.215  0.00  0.00     0.173 A 
ATOM     13  N2   11 d           5.594  47.851  54.008  0.00  0.00    -0.236 NA
ATOM     14  C9   11 d           6.297  48.643  54.860  0.00  0.00     0.126 A 
ATOM     15  C10  11 d           7.662  48.494  54.667  0.00  0.00     0.072 A 
ATOM     16  S1   11 d           7.850  47.497  53.569  0.00  0.00    -0.062 SA
ENDBRANCH   3  12
TORSDOF 2
ENDMDL
MODEL 9
REMARK VINA RESULT:      -5.8      4.882      5.918
REMARK  2 active torsions:
REMARK  status: ('A' for Active; 'I' for Inactive)
REMARK    1  A    between atoms: C1_1  and  C2_2 
REMARK       I    between atoms: C1_1  and  N1_10 
REMARK    2  A    between atoms: N1_10  and  C8_11 
ROOT
ATOM      1  C1   11 d           3.398  45.522  53.034  0.00  0.00     0.257 C 
ATOM      2  O1   11 d           3.137  46.744  53.321  0.00  0.00    -0.267 OA
ATOM      3  N1   11 d           2.543  44.494  53.550  0.00  0.00    -0.301 N 
ATOM      4  H5   11 d           2.723  43.462  53.336  0.00  0.00     0.171 HD
ENDROOT
BRANCH   1   5
ATOM      5  C2   11 d           4.592  45.234  52.165  0.00  0.00     0.032 A 
ATOM      6  C3   11 d           4.631  44.023  51.433  0.00  0.00     0.018 A 
ATOM      7  C4   11 d           5.722  43.707  50.610  0.00  0.00     0.020 A 
ATOM      8  C5   11 d           6.799  44.596  50.500  0.00  0.00     0.011 A 
ATOM      9 Br1   11 d           8.299  44.163  49.369  0.00  0.00    -0.051 Br
ATOM     10  C6   11 d           6.781  45.801  51.213  0.00  0.00     0.020 A 
ATOM     11  C7   11 d           5.690  46.120  52.038  0.00  0.00     0.018 A 
ENDBRANCH   1   5
BRANCH   3  12
ATOM     12  C8   11 d           1.383  44.790  54.394  0.00  0.00     0.173 A 
ATOM     13  N2   11 d           1.389  45.052  55.724  0.00  0.00    -0.236 NA
ATOM     14  C9   11 d           0.125  45.282  56.168  0.00  0.00     0.126 A 
ATOM     15  C10  11 d          -0.793  45.181  55.132  0.00  0.00     0.072 A 
ATOM     16  S1   11 d          -0.028  44.850  53.891  0.00  0.00    -0.062 SA
ENDBRANCH   3  12
TORSDOF 2
ENDMDL
MODEL 10
REMARK VINA RESULT:      -5.8      3.230      3.458
REMARK  2 active torsions:
REMARK  status: ('A' for Active; 'I' for Inactive)
REMARK    1  A    between atoms: C1_1  and  C2_2 
REMARK       I    between atoms: C1_1  and  N1_10 
REMARK    2  A    between atoms: N1_10  and  C8_11 
ROOT
ATOM      1  C1   11 d           3.738  43.942  51.734  0.00  0.00     0.257 C 
ATOM      2  O1   11 d           3.901  42.671  51.782  0.00  0.00    -0.267 OA
ATOM      3  N1   11 d           2.408  44.462  51.621  0.00  0.00    -0.301 N 
ATOM      4  H5   11 d           2.226  45.515  51.578  0.00  0.00     0.171 HD
ENDROOT
BRANCH   1   5
ATOM      5  C2   11 d           4.958  44.820  51.803  0.00  0.00     0.032 A 
ATOM      6  C3   11 d           6.003  44.615  50.870  0.00  0.00     0.018 A 
ATOM      7  C4   11 d           7.162  45.407  50.893  0.00  0.00     0.020 A 
ATOM      8  C5   11 d           7.301  46.420  51.850  0.00  0.00     0.011 A 
ATOM      9 Br1   11 d           8.893  47.507  51.883  0.00  0.00    -0.051 Br
ATOM     10  C6   11 d           6.280  46.641  52.782  0.00  0.00     0.020 A 
ATOM     11  C7   11 d           5.118  45.851  52.761  0.00  0.00     0.018 A 
ENDBRANCH   1   5
BRANCH   3  12
ATOM     12  C8   11 d           1.230  43.595  51.556  0.00  0.00     0.173 A 
ATOM     13  N2   11 d           0.842  42.824  50.511  0.00  0.00    -0.236 NA
ATOM     14  C9   11 d          -0.301  42.154  50.814  0.00  0.00     0.126 A 
ATOM     15  C10  11 d          -0.730  42.456  52.098  0.00  0.00     0.072 A 
ATOM     16  S1   11 d           0.248  43.427  52.677  0.00  0.00    -0.062 SA
ENDBRANCH   3  12
TORSDOF 2
ENDMDL
