MODEL 1
REMARK VINA RESULT:      -8.6      0.000      0.000
REMARK  2 active torsions:
REMARK  status: ('A' for Active; 'I' for Inactive)
REMARK    1  A    between atoms: C2_5  and  C1_2 
REMARK    2  A    between atoms: C7_10  and  N1_11 
REMARK       I    between atoms: N1_11  and  C8_12 
ROOT
ATOM      1  N1  <1> d           4.659  44.135  51.744  0.00  0.00    -0.284 N 
ATOM      2  C8  <1> d           3.273  43.745  51.933  0.00  0.00     0.220 A 
ATOM      3  N2  <1> d           2.735  42.982  50.997  0.00  0.00    -0.223 NA
ATOM      4  C9  <1> d           1.423  42.580  51.135  0.00  0.00     0.116 A 
ATOM      5  C10 <1> d           0.583  42.932  52.226  0.00  0.00     0.049 A 
ATOM      6  N3  <1> d           2.560  44.129  53.004  0.00  0.00    -0.214 NA
ATOM      7  C11 <1> d           1.219  43.771  53.222  0.00  0.00     0.084 A 
ATOM      8  C12 <1> d           0.612  44.285  54.424  0.00  0.00     0.060 A 
ATOM      9  S1  <1> d           1.683  45.309  55.450  0.00  0.00    -0.071 SA
ATOM     10  C13 <1> d          -0.655  44.212  55.063  0.00  0.00     0.055 A 
ATOM     11  C14 <1> d          -1.910  43.451  54.558  0.00  0.00     0.067 C 
ATOM     12  N4  <1> d          -0.755  44.914  56.284  0.00  0.00    -0.249 NA
ATOM     13  C15 <1> d           0.432  45.517  56.556  0.00  0.00     0.076 A 
ATOM     14  C16 <1> d           0.783  46.365  57.744  0.00  0.00     0.074 C 
ATOM     15  H5  <1> d           4.985  43.743  50.884  0.00  0.00     0.155 HD
ENDROOT
BRANCH   1  16
ATOM     16  C7  <1> d           5.768  44.904  52.362  0.00  0.00     0.034 A 
ATOM     17  C4  <1> d           6.982  45.270  51.561  0.00  0.00     0.024 A 
ATOM     18  C3  <1> d           8.062  45.990  52.182  0.00  0.00     0.014 A 
ATOM     19  C2  <1> d           7.972  46.363  53.583  0.00  0.00     0.055 A 
ATOM     20  C5  <1> d           6.775  46.010  54.342  0.00  0.00     0.014 A 
ATOM     21  C6  <1> d           5.712  45.302  53.738  0.00  0.00     0.024 A 
BRANCH  19  22
ATOM     22  C1  <1> d           9.182  47.136  54.299  0.00  0.00     0.417 C 
ATOM     23  F1  <1> d           8.910  48.519  54.236  0.00  0.00    -0.166 F 
ATOM     24  F2  <1> d           9.283  46.748  55.656  0.00  0.00    -0.166 F 
ATOM     25  F3  <1> d          10.377  46.853  53.630  0.00  0.00    -0.166 F 
ENDBRANCH  19  22
ENDBRANCH   1  16
TORSDOF 2
ENDMDL
MODEL 2
REMARK VINA RESULT:      -8.5      1.888      4.066
REMARK  2 active torsions:
REMARK  status: ('A' for Active; 'I' for Inactive)
REMARK    1  A    between atoms: C2_5  and  C1_2 
REMARK    2  A    between atoms: C7_10  and  N1_11 
REMARK       I    between atoms: N1_11  and  C8_12 
ROOT
ATOM      1  N1  <1> d           3.694  46.423  56.259  0.00  0.00    -0.284 N 
ATOM      2  C8  <1> d           2.396  45.809  56.044  0.00  0.00     0.220 A 
ATOM      3  N2  <1> d           1.474  46.023  56.966  0.00  0.00    -0.223 NA
ATOM      4  C9  <1> d           0.223  45.466  56.804  0.00  0.00     0.116 A 
ATOM      5  C10 <1> d          -0.160  44.656  55.700  0.00  0.00     0.049 A 
ATOM      6  N3  <1> d           2.129  45.058  54.963  0.00  0.00    -0.214 NA
ATOM      7  C11 <1> d           0.887  44.449  54.720  0.00  0.00     0.084 A 
ATOM      8  C12 <1> d           0.787  43.671  53.510  0.00  0.00     0.060 A 
ATOM      9  S1  <1> d           2.285  43.609  52.509  0.00  0.00    -0.071 SA
ATOM     10  C13 <1> d          -0.205  42.898  52.849  0.00  0.00     0.055 A 
ATOM     11  C14 <1> d          -1.660  42.644  53.328  0.00  0.00     0.067 C 
ATOM     12  N4  <1> d           0.201  42.311  51.631  0.00  0.00    -0.249 NA
ATOM     13  C15 <1> d           1.496  42.639  51.383  0.00  0.00     0.076 A 
ATOM     14  C16 <1> d           2.338  42.238  50.206  0.00  0.00     0.074 C 
ATOM     15  H5  <1> d           3.668  46.927  57.122  0.00  0.00     0.155 HD
ENDROOT
BRANCH   1  16
ATOM     16  C7  <1> d           5.045  46.576  55.665  0.00  0.00     0.034 A 
ATOM     17  C4  <1> d           5.860  47.808  55.927  0.00  0.00     0.024 A 
ATOM     18  C3  <1> d           7.156  47.955  55.320  0.00  0.00     0.014 A 
ATOM     19  C2  <1> d           7.674  46.907  54.457  0.00  0.00     0.055 A 
ATOM     20  C5  <1> d           6.872  45.709  54.226  0.00  0.00     0.014 A 
ATOM     21  C6  <1> d           5.598  45.560  54.818  0.00  0.00     0.024 A 
BRANCH  19  22
ATOM     22  C1  <1> d           9.103  47.070  53.746  0.00  0.00     0.417 C 
ATOM     23  F1  <1> d          10.054  47.364  54.746  0.00  0.00    -0.166 F 
ATOM     24  F2  <1> d           9.473  45.869  53.097  0.00  0.00    -0.166 F 
ATOM     25  F3  <1> d           9.045  48.116  52.819  0.00  0.00    -0.166 F 
ENDBRANCH  19  22
ENDBRANCH   1  16
TORSDOF 2
ENDMDL
MODEL 3
REMARK VINA RESULT:      -8.5      4.027      7.372
REMARK  2 active torsions:
REMARK  status: ('A' for Active; 'I' for Inactive)
REMARK    1  A    between atoms: C2_5  and  C1_2 
REMARK    2  A    between atoms: C7_10  and  N1_11 
REMARK       I    between atoms: N1_11  and  C8_12 
ROOT
ATOM      1  N1  <1> d           2.248  42.671  52.943  0.00  0.00    -0.284 N 
ATOM      2  C8  <1> d           3.369  42.633  52.021  0.00  0.00     0.220 A 
ATOM      3  N2  <1> d           3.356  41.680  51.105  0.00  0.00    -0.223 NA
ATOM      4  C9  <1> d           4.395  41.605  50.203  0.00  0.00     0.116 A 
ATOM      5  C10 <1> d           5.508  42.489  50.182  0.00  0.00     0.049 A 
ATOM      6  N3  <1> d           4.378  43.517  52.082  0.00  0.00    -0.214 NA
ATOM      7  C11 <1> d           5.477  43.512  51.208  0.00  0.00     0.084 A 
ATOM      8  C12 <1> d           6.470  44.534  51.430  0.00  0.00     0.060 A 
ATOM      9  S1  <1> d           6.130  45.651  52.803  0.00  0.00    -0.071 SA
ATOM     10  C13 <1> d           7.703  44.930  50.846  0.00  0.00     0.055 A 
ATOM     11  C14 <1> d           8.418  44.267  49.638  0.00  0.00     0.067 C 
ATOM     12  N4  <1> d           8.321  46.049  51.447  0.00  0.00    -0.249 NA
ATOM     13  C15 <1> d           7.556  46.484  52.482  0.00  0.00     0.076 A 
ATOM     14  C16 <1> d           7.823  47.642  53.401  0.00  0.00     0.074 C 
ATOM     15  H5  <1> d           1.625  41.922  52.718  0.00  0.00     0.155 HD
ENDROOT
BRANCH   1  16
ATOM     16  C7  <1> d           1.690  43.417  54.098  0.00  0.00     0.034 A 
ATOM     17  C4  <1> d           2.536  44.394  54.859  0.00  0.00     0.024 A 
ATOM     18  C3  <1> d           1.989  45.087  55.996  0.00  0.00     0.014 A 
ATOM     19  C2  <1> d           0.616  44.840  56.401  0.00  0.00     0.055 A 
ATOM     20  C5  <1> d          -0.197  43.896  55.639  0.00  0.00     0.014 A 
ATOM     21  C6  <1> d           0.336  43.212  54.523  0.00  0.00     0.024 A 
BRANCH  19  22
ATOM     22  C1  <1> d           0.001  45.579  57.685  0.00  0.00     0.417 C 
ATOM     23  F1  <1> d          -1.368  45.814  57.436  0.00  0.00    -0.166 F 
ATOM     24  F2  <1> d           0.126  44.761  58.834  0.00  0.00    -0.166 F 
ATOM     25  F3  <1> d           0.666  46.792  57.888  0.00  0.00    -0.166 F 
ENDBRANCH  19  22
ENDBRANCH   1  16
TORSDOF 2
ENDMDL
MODEL 4
REMARK VINA RESULT:      -8.4      1.866      2.660
REMARK  2 active torsions:
REMARK  status: ('A' for Active; 'I' for Inactive)
REMARK    1  A    between atoms: C2_5  and  C1_2 
REMARK    2  A    between atoms: C7_10  and  N1_11 
REMARK       I    between atoms: N1_11  and  C8_12 
ROOT
ATOM      1  N1  <1> d           3.929  44.133  53.651  0.00  0.00    -0.284 N 
ATOM      2  C8  <1> d           2.612  44.171  54.260  0.00  0.00     0.220 A 
ATOM      3  N2  <1> d           1.863  43.090  54.130  0.00  0.00    -0.223 NA
ATOM      4  C9  <1> d           0.606  43.075  54.697  0.00  0.00     0.116 A 
ATOM      5  C10 <1> d           0.038  44.156  55.423  0.00  0.00     0.049 A 
ATOM      6  N3  <1> d           2.163  45.244  54.931  0.00  0.00    -0.214 NA
ATOM      7  C11 <1> d           0.897  45.317  55.534  0.00  0.00     0.084 A 
ATOM      8  C12 <1> d           0.584  46.555  56.204  0.00  0.00     0.060 A 
ATOM      9  S1  <1> d           1.878  47.808  56.150  0.00  0.00    -0.071 SA
ATOM     10  C13 <1> d          -0.511  47.096  56.930  0.00  0.00     0.055 A 
ATOM     11  C14 <1> d          -1.863  46.398  57.236  0.00  0.00     0.067 C 
ATOM     12  N4  <1> d          -0.322  48.410  57.413  0.00  0.00    -0.249 NA
ATOM     13  C15 <1> d           0.908  48.853  57.045  0.00  0.00     0.076 A 
ATOM     14  C16 <1> d           1.534  50.186  57.339  0.00  0.00     0.074 C 
ATOM     15  H5  <1> d           4.047  43.246  53.204  0.00  0.00     0.155 HD
ENDROOT
BRANCH   1  16
ATOM     16  C7  <1> d           5.164  44.930  53.448  0.00  0.00     0.034 A 
ATOM     17  C4  <1> d           5.817  45.000  52.099  0.00  0.00     0.024 A 
ATOM     18  C3  <1> d           7.030  45.752  51.925  0.00  0.00     0.014 A 
ATOM     19  C2  <1> d           7.619  46.447  53.057  0.00  0.00     0.055 A 
ATOM     20  C5  <1> d           6.962  46.379  54.359  0.00  0.00     0.014 A 
ATOM     21  C6  <1> d           5.771  45.640  54.536  0.00  0.00     0.024 A 
BRANCH  19  22
ATOM     22  C1  <1> d           8.990  47.263  52.888  0.00  0.00     0.417 C 
ATOM     23  F1  <1> d           9.355  47.764  54.155  0.00  0.00    -0.166 F 
ATOM     24  F2  <1> d          10.017  46.412  52.416  0.00  0.00    -0.166 F 
ATOM     25  F3  <1> d           8.796  48.320  51.993  0.00  0.00    -0.166 F 
ENDBRANCH  19  22
ENDBRANCH   1  16
TORSDOF 2
ENDMDL
MODEL 5
REMARK VINA RESULT:      -8.3      2.965      4.488
REMARK  2 active torsions:
REMARK  status: ('A' for Active; 'I' for Inactive)
REMARK    1  A    between atoms: C2_5  and  C1_2 
REMARK    2  A    between atoms: C7_10  and  N1_11 
REMARK       I    between atoms: N1_11  and  C8_12 
ROOT
ATOM      1  N1  <1> d           5.450  47.619  54.143  0.00  0.00    -0.284 N 
ATOM      2  C8  <1> d           4.154  47.823  54.763  0.00  0.00     0.220 A 
ATOM      3  N2  <1> d           4.029  48.875  55.554  0.00  0.00    -0.223 NA
ATOM      4  C9  <1> d           2.815  49.115  56.162  0.00  0.00     0.116 A 
ATOM      5  C10 <1> d           1.662  48.299  56.005  0.00  0.00     0.049 A 
ATOM      6  N3  <1> d           3.120  46.993  54.551  0.00  0.00    -0.214 NA
ATOM      7  C11 <1> d           1.851  47.159  55.132  0.00  0.00     0.084 A 
ATOM      8  C12 <1> d           0.864  46.162  54.797  0.00  0.00     0.060 A 
ATOM      9  S1  <1> d           1.431  44.863  53.683  0.00  0.00    -0.071 SA
ATOM     10  C13 <1> d          -0.496  45.898  55.111  0.00  0.00     0.055 A 
ATOM     11  C14 <1> d          -1.416  46.733  56.042  0.00  0.00     0.067 C 
ATOM     12  N4  <1> d          -1.043  44.750  54.499  0.00  0.00    -0.249 NA
ATOM     13  C15 <1> d          -0.094  44.152  53.733  0.00  0.00     0.076 A 
ATOM     14  C16 <1> d          -0.229  42.908  52.903  0.00  0.00     0.074 C 
ATOM     15  H5  <1> d           6.065  48.348  54.444  0.00  0.00     0.155 HD
ENDROOT
BRANCH   1  16
ATOM     16  C7  <1> d           6.197  46.723  53.225  0.00  0.00     0.034 A 
ATOM     17  C4  <1> d           7.670  46.904  53.010  0.00  0.00     0.024 A 
ATOM     18  C3  <1> d           8.374  46.047  52.095  0.00  0.00     0.014 A 
ATOM     19  C2  <1> d           7.656  45.004  51.382  0.00  0.00     0.055 A 
ATOM     20  C5  <1> d           6.224  44.834  51.615  0.00  0.00     0.014 A 
ATOM     21  C6  <1> d           5.528  45.674  52.512  0.00  0.00     0.024 A 
BRANCH  19  22
ATOM     22  C1  <1> d           8.419  44.061  50.332  0.00  0.00     0.417 C 
ATOM     23  F1  <1> d           8.382  42.741  50.829  0.00  0.00    -0.166 F 
ATOM     24  F2  <1> d           7.773  44.097  49.074  0.00  0.00    -0.166 F 
ATOM     25  F3  <1> d           9.745  44.486  50.202  0.00  0.00    -0.166 F 
ENDBRANCH  19  22
ENDBRANCH   1  16
TORSDOF 2
ENDMDL
MODEL 6
REMARK VINA RESULT:      -8.0      4.823      7.961
REMARK  2 active torsions:
REMARK  status: ('A' for Active; 'I' for Inactive)
REMARK    1  A    between atoms: C2_5  and  C1_2 
REMARK    2  A    between atoms: C7_10  and  N1_11 
REMARK       I    between atoms: N1_11  and  C8_12 
ROOT
ATOM      1  N1  <1> d           4.140  47.190  55.228  0.00  0.00    -0.284 N 
ATOM      2  C8  <1> d           5.160  46.908  54.234  0.00  0.00     0.220 A 
ATOM      3  N2  <1> d           6.184  47.741  54.175  0.00  0.00    -0.223 NA
ATOM      4  C9  <1> d           7.181  47.512  53.251  0.00  0.00     0.116 A 
ATOM      5  C10 <1> d           7.193  46.427  52.332  0.00  0.00     0.049 A 
ATOM      6  N3  <1> d           5.081  45.852  53.408  0.00  0.00    -0.214 NA
ATOM      7  C11 <1> d           6.048  45.546  52.435  0.00  0.00     0.084 A 
ATOM      8  C12 <1> d           5.791  44.376  51.631  0.00  0.00     0.060 A 
ATOM      9  S1  <1> d           4.262  43.502  52.012  0.00  0.00    -0.071 SA
ATOM     10  C13 <1> d           6.431  43.683  50.570  0.00  0.00     0.055 A 
ATOM     11  C14 <1> d           7.774  44.059  49.888  0.00  0.00     0.067 C 
ATOM     12  N4  <1> d           5.754  42.534  50.105  0.00  0.00    -0.249 NA
ATOM     13  C15 <1> d           4.606  42.372  50.814  0.00  0.00     0.076 A 
ATOM     14  C16 <1> d           3.577  41.288  50.664  0.00  0.00     0.074 C 
ATOM     15  H5  <1> d           4.400  48.020  55.722  0.00  0.00     0.155 HD
ENDROOT
BRANCH   1  16
ATOM     16  C7  <1> d           2.853  46.698  55.779  0.00  0.00     0.034 A 
ATOM     17  C4  <1> d           1.763  47.658  56.152  0.00  0.00     0.024 A 
ATOM     18  C3  <1> d           0.533  47.168  56.713  0.00  0.00     0.014 A 
ATOM     19  C2  <1> d           0.348  45.740  56.913  0.00  0.00     0.055 A 
ATOM     20  C5  <1> d           1.416  44.820  56.531  0.00  0.00     0.014 A 
ATOM     21  C6  <1> d           2.626  45.296  55.981  0.00  0.00     0.024 A 
BRANCH  19  22
ATOM     22  C1  <1> d          -1.004  45.179  57.569  0.00  0.00     0.417 C 
ATOM     23  F1  <1> d          -1.997  46.171  57.430  0.00  0.00    -0.166 F 
ATOM     24  F2  <1> d          -1.429  44.006  56.901  0.00  0.00    -0.166 F 
ATOM     25  F3  <1> d          -0.787  44.906  58.923  0.00  0.00    -0.166 F 
ENDBRANCH  19  22
ENDBRANCH   1  16
TORSDOF 2
ENDMDL
MODEL 7
REMARK VINA RESULT:      -8.0      4.960      8.635
REMARK  2 active torsions:
REMARK  status: ('A' for Active; 'I' for Inactive)
REMARK    1  A    between atoms: C2_5  and  C1_2 
REMARK    2  A    between atoms: C7_10  and  N1_11 
REMARK       I    between atoms: N1_11  and  C8_12 
ROOT
ATOM      1  N1  <1> d           2.604  45.900  55.249  0.00  0.00    -0.284 N 
ATOM      2  C8  <1> d           3.956  46.408  55.112  0.00  0.00     0.220 A 
ATOM      3  N2  <1> d           4.368  47.267  56.028  0.00  0.00    -0.223 NA
ATOM      4  C9  <1> d           5.647  47.774  55.944  0.00  0.00     0.116 A 
ATOM      5  C10 <1> d           6.579  47.441  54.924  0.00  0.00     0.049 A 
ATOM      6  N3  <1> d           4.765  46.031  54.108  0.00  0.00    -0.214 NA
ATOM      7  C11 <1> d           6.079  46.500  53.943  0.00  0.00     0.084 A 
ATOM      8  C12 <1> d           6.796  45.991  52.799  0.00  0.00     0.060 A 
ATOM      9  S1  <1> d           5.876  44.834  51.768  0.00  0.00    -0.071 SA
ATOM     10  C13 <1> d           8.085  46.152  52.224  0.00  0.00     0.055 A 
ATOM     11  C14 <1> d           9.233  47.056  52.748  0.00  0.00     0.067 C 
ATOM     12  N4  <1> d           8.320  45.398  51.054  0.00  0.00    -0.249 NA
ATOM     13  C15 <1> d           7.207  44.680  50.750  0.00  0.00     0.076 A 
ATOM     14  C16 <1> d           7.004  43.741  49.595  0.00  0.00     0.074 C 
ATOM     15  H5  <1> d           2.188  46.317  56.058  0.00  0.00     0.155 HD
ENDROOT
BRANCH   1  16
ATOM     16  C7  <1> d           1.612  44.987  54.628  0.00  0.00     0.034 A 
ATOM     17  C4  <1> d           0.770  44.081  55.476  0.00  0.00     0.024 A 
ATOM     18  C3  <1> d          -0.166  43.181  54.857  0.00  0.00     0.014 A 
ATOM     19  C2  <1> d          -0.295  43.154  53.410  0.00  0.00     0.055 A 
ATOM     20  C5  <1> d           0.524  44.053  52.602  0.00  0.00     0.014 A 
ATOM     21  C6  <1> d           1.445  44.938  53.204  0.00  0.00     0.024 A 
BRANCH  19  22
ATOM     22  C1  <1> d          -1.309  42.132  52.702  0.00  0.00     0.417 C 
ATOM     23  F1  <1> d          -0.872  41.938  51.374  0.00  0.00    -0.166 F 
ATOM     24  F2  <1> d          -1.306  40.887  53.373  0.00  0.00    -0.166 F 
ATOM     25  F3  <1> d          -2.597  42.676  52.706  0.00  0.00    -0.166 F 
ENDBRANCH  19  22
ENDBRANCH   1  16
TORSDOF 2
ENDMDL
MODEL 8
REMARK VINA RESULT:      -7.7      3.009      4.569
REMARK  2 active torsions:
REMARK  status: ('A' for Active; 'I' for Inactive)
REMARK    1  A    between atoms: C2_5  and  C1_2 
REMARK    2  A    between atoms: C7_10  and  N1_11 
REMARK       I    between atoms: N1_11  and  C8_12 
ROOT
ATOM      1  N1  <1> d           3.836  45.738  54.811  0.00  0.00    -0.284 N 
ATOM      2  C8  <1> d           2.531  45.649  55.440  0.00  0.00     0.220 A 
ATOM      3  N2  <1> d           2.365  46.318  56.568  0.00  0.00    -0.223 NA
ATOM      4  C9  <1> d           1.141  46.269  57.201  0.00  0.00     0.116 A 
ATOM      5  C10 <1> d           0.018  45.538  56.726  0.00  0.00     0.049 A 
ATOM      6  N3  <1> d           1.528  44.929  54.911  0.00  0.00    -0.214 NA
ATOM      7  C11 <1> d           0.253  44.821  55.490  0.00  0.00     0.084 A 
ATOM      8  C12 <1> d          -0.696  43.995  54.784  0.00  0.00     0.060 A 
ATOM      9  S1  <1> d          -0.079  43.235  53.271  0.00  0.00    -0.071 SA
ATOM     10  C13 <1> d          -2.047  43.588  54.951  0.00  0.00     0.055 A 
ATOM     11  C14 <1> d          -3.000  43.977  56.112  0.00  0.00     0.067 C 
ATOM     12  N4  <1> d          -2.550  42.741  53.939  0.00  0.00    -0.249 NA
ATOM     13  C15 <1> d          -1.576  42.510  53.020  0.00  0.00     0.076 A 
ATOM     14  C16 <1> d          -1.662  41.670  51.778  0.00  0.00     0.074 C 
ATOM     15  H5  <1> d           4.423  46.318  55.377  0.00  0.00     0.155 HD
ENDROOT
BRANCH   1  16
ATOM     16  C7  <1> d           4.619  45.282  53.635  0.00  0.00     0.034 A 
ATOM     17  C4  <1> d           5.914  45.947  53.275  0.00  0.00     0.024 A 
ATOM     18  C3  <1> d           6.646  45.513  52.114  0.00  0.00     0.014 A 
ATOM     19  C2  <1> d           6.129  44.429  51.296  0.00  0.00     0.055 A 
ATOM     20  C5  <1> d           4.873  43.785  51.672  0.00  0.00     0.014 A 
ATOM     21  C6  <1> d           4.150  44.208  52.810  0.00  0.00     0.024 A 
BRANCH  19  22
ATOM     22  C1  <1> d           6.915  43.956  49.981  0.00  0.00     0.417 C 
ATOM     23  F1  <1> d           8.137  43.381  50.390  0.00  0.00    -0.166 F 
ATOM     24  F2  <1> d           6.163  42.987  49.276  0.00  0.00    -0.166 F 
ATOM     25  F3  <1> d           7.159  45.062  49.161  0.00  0.00    -0.166 F 
ENDBRANCH  19  22
ENDBRANCH   1  16
TORSDOF 2
ENDMDL
MODEL 9
REMARK VINA RESULT:      -7.6      5.056      8.568
REMARK  2 active torsions:
REMARK  status: ('A' for Active; 'I' for Inactive)
REMARK    1  A    between atoms: C2_5  and  C1_2 
REMARK    2  A    between atoms: C7_10  and  N1_11 
REMARK       I    between atoms: N1_11  and  C8_12 
ROOT
ATOM      1  N1  <1> d           3.532  46.975  55.865  0.00  0.00    -0.284 N 
ATOM      2  C8  <1> d           4.905  47.135  55.423  0.00  0.00     0.220 A 
ATOM      3  N2  <1> d           5.663  47.966  56.117  0.00  0.00    -0.223 NA
ATOM      4  C9  <1> d           6.976  48.147  55.739  0.00  0.00     0.116 A 
ATOM      5  C10 <1> d           7.593  47.499  54.635  0.00  0.00     0.049 A 
ATOM      6  N3  <1> d           5.398  46.474  54.363  0.00  0.00    -0.214 NA
ATOM      7  C11 <1> d           6.720  46.602  53.906  0.00  0.00     0.084 A 
ATOM      8  C12 <1> d           7.069  45.821  52.745  0.00  0.00     0.060 A 
ATOM      9  S1  <1> d           5.739  44.808  52.071  0.00  0.00    -0.071 SA
ATOM     10  C13 <1> d           8.220  45.613  51.939  0.00  0.00     0.055 A 
ATOM     11  C14 <1> d           9.614  46.273  52.117  0.00  0.00     0.067 C 
ATOM     12  N4  <1> d           8.052  44.704  50.871  0.00  0.00    -0.249 NA
ATOM     13  C15 <1> d           6.775  44.238  50.874  0.00  0.00     0.076 A 
ATOM     14  C16 <1> d           6.151  43.256  49.925  0.00  0.00     0.074 C 
ATOM     15  H5  <1> d           3.384  47.561  56.662  0.00  0.00     0.155 HD
ENDROOT
BRANCH   1  16
ATOM     16  C7  <1> d           2.266  46.259  55.567  0.00  0.00     0.034 A 
ATOM     17  C4  <1> d           1.366  46.725  54.461  0.00  0.00     0.024 A 
ATOM     18  C3  <1> d           0.128  46.039  54.204  0.00  0.00     0.014 A 
ATOM     19  C2  <1> d          -0.245  44.892  55.015  0.00  0.00     0.055 A 
ATOM     20  C5  <1> d           0.651  44.445  56.077  0.00  0.00     0.014 A 
ATOM     21  C6  <1> d           1.867  45.116  56.335  0.00  0.00     0.024 A 
BRANCH  19  22
ATOM     22  C1  <1> d          -1.638  44.136  54.763  0.00  0.00     0.417 C 
ATOM     23  F1  <1> d          -2.678  45.072  54.949  0.00  0.00    -0.166 F 
ATOM     24  F2  <1> d          -1.698  43.638  53.440  0.00  0.00    -0.166 F 
ATOM     25  F3  <1> d          -1.770  43.086  55.677  0.00  0.00    -0.166 F 
ENDBRANCH  19  22
ENDBRANCH   1  16
TORSDOF 2
ENDMDL
MODEL 10
REMARK VINA RESULT:      -7.5      5.223      8.667
REMARK  2 active torsions:
REMARK  status: ('A' for Active; 'I' for Inactive)
REMARK    1  A    between atoms: C2_5  and  C1_2 
REMARK    2  A    between atoms: C7_10  and  N1_11 
REMARK       I    between atoms: N1_11  and  C8_12 
ROOT
ATOM      1  N1  <1> d           2.183  45.742  55.259  0.00  0.00    -0.284 N 
ATOM      2  C8  <1> d           3.447  46.015  54.601  0.00  0.00     0.220 A 
ATOM      3  N2  <1> d           4.118  47.077  55.014  0.00  0.00    -0.223 NA
ATOM      4  C9  <1> d           5.327  47.376  54.423  0.00  0.00     0.116 A 
ATOM      5  C10 <1> d           5.922  46.617  53.378  0.00  0.00     0.049 A 
ATOM      6  N3  <1> d           3.928  45.235  53.619  0.00  0.00    -0.214 NA
ATOM      7  C11 <1> d           5.147  45.467  52.960  0.00  0.00     0.084 A 
ATOM      8  C12 <1> d           5.497  44.528  51.924  0.00  0.00     0.060 A 
ATOM      9  S1  <1> d           4.302  43.207  51.646  0.00  0.00    -0.071 SA
ATOM     10  C13 <1> d           6.569  44.338  51.012  0.00  0.00     0.055 A 
ATOM     11  C14 <1> d           7.834  45.225  50.862  0.00  0.00     0.067 C 
ATOM     12  N4  <1> d           6.446  43.215  50.164  0.00  0.00    -0.249 NA
ATOM     13  C15 <1> d           5.282  42.570  50.436  0.00  0.00     0.076 A 
ATOM     14  C16 <1> d           4.741  41.331  49.783  0.00  0.00     0.074 C 
ATOM     15  H5  <1> d           2.024  46.449  55.948  0.00  0.00     0.155 HD
ENDROOT
BRANCH   1  16
ATOM     16  C7  <1> d           1.040  44.795  55.283  0.00  0.00     0.034 A 
ATOM     17  C4  <1> d          -0.214  45.130  56.035  0.00  0.00     0.024 A 
ATOM     18  C3  <1> d          -1.302  44.189  56.074  0.00  0.00     0.014 A 
ATOM     19  C2  <1> d          -1.183  42.917  55.381  0.00  0.00     0.055 A 
ATOM     20  C5  <1> d           0.041  42.615  54.644  0.00  0.00     0.014 A 
ATOM     21  C6  <1> d           1.112  43.535  54.603  0.00  0.00     0.024 A 
BRANCH  19  22
ATOM     22  C1  <1> d          -2.373  41.843  55.443  0.00  0.00     0.417 C 
ATOM     23  F1  <1> d          -3.254  42.111  54.374  0.00  0.00    -0.166 F 
ATOM     24  F2  <1> d          -1.864  40.531  55.301  0.00  0.00    -0.166 F 
ATOM     25  F3  <1> d          -3.048  41.965  56.661  0.00  0.00    -0.166 F 
ENDBRANCH  19  22
ENDBRANCH   1  16
TORSDOF 2
ENDMDL
