MODEL 1
REMARK VINA RESULT:      -6.6      0.000      0.000
REMARK  2 active torsions:
REMARK  status: ('A' for Active; 'I' for Inactive)
REMARK    1  A    between atoms: N1_1  and  C1_2 
REMARK    2  A    between atoms: C1_2  and  C2_3 
ROOT
ATOM      1  C1   11 d         -14.429 205.555 113.530  0.00  0.00     0.188 C 
ATOM      2  C7   11 d         -15.573 206.067 114.432  0.00  0.00     0.040 C 
ENDROOT
BRANCH   1   3
ATOM      3  N1   11 d         -13.226 206.520 113.491  0.00  0.00    -0.064 N 
ATOM      4  C8   11 d         -12.005 206.081 114.281  0.00  0.00     0.263 C 
ATOM      5  C9   11 d         -11.870 206.636 115.723  0.00  0.00     0.262 C 
ATOM      6  N3   11 d         -12.089 208.120 115.842  0.00  0.00    -0.072 N 
ATOM      7  C10  11 d         -13.377 208.512 115.169  0.00  0.00     0.262 C 
ATOM      8  C12  11 d         -10.914 208.924 115.368  0.00  0.00     0.269 C 
ATOM      9  H21  11 d         -12.191 208.348 116.893  0.00  0.00     0.279 HD
ATOM     10  C11  11 d         -13.530 207.990 113.714  0.00  0.00     0.263 C 
ATOM     11  H1   11 d         -12.886 206.477 112.470  0.00  0.00     0.280 HD
ENDBRANCH   1   3
BRANCH   1  12
ATOM     12  C2   11 d         -14.918 205.102 112.088  0.00  0.00     0.019 C 
ATOM     13  C3   11 d         -13.975 205.319 110.867  0.00  0.00     0.034 C 
ATOM     14  C4   11 d         -13.991 206.754 110.303  0.00  0.00     0.232 C 
ATOM     15  N2   11 d         -15.372 207.184 109.925  0.00  0.00    -0.075 N 
ATOM     16  C5   11 d         -16.307 207.069 111.087  0.00  0.00     0.232 C 
ATOM     17  H8   11 d         -15.347 208.203 109.582  0.00  0.00     0.277 HD
ATOM     18  H9   11 d         -15.730 206.591 109.101  0.00  0.00     0.277 HD
ATOM     19  C6   11 d         -16.323 205.649 111.698  0.00  0.00     0.034 C 
ENDBRANCH   1  12
TORSDOF 2
ENDMDL
MODEL 2
REMARK VINA RESULT:      -6.5      1.331      2.447
REMARK  2 active torsions:
REMARK  status: ('A' for Active; 'I' for Inactive)
REMARK    1  A    between atoms: N1_1  and  C1_2 
REMARK    2  A    between atoms: C1_2  and  C2_3 
ROOT
ATOM      1  C1   11 d         -12.872 206.836 112.742  0.00  0.00     0.188 C 
ATOM      2  C7   11 d         -11.334 206.953 112.683  0.00  0.00     0.040 C 
ENDROOT
BRANCH   1   3
ATOM      3  N1   11 d         -13.381 206.371 114.121  0.00  0.00    -0.064 N 
ATOM      4  C8   11 d         -14.461 207.237 114.749  0.00  0.00     0.263 C 
ATOM      5  C9   11 d         -13.991 208.322 115.753  0.00  0.00     0.262 C 
ATOM      6  N3   11 d         -13.017 207.832 116.789  0.00  0.00    -0.072 N 
ATOM      7  C10  11 d         -11.882 207.096 116.131  0.00  0.00     0.262 C 
ATOM      8  C12  11 d         -13.674 207.037 117.879  0.00  0.00     0.269 C 
ATOM      9  H21  11 d         -12.599 208.701 117.276  0.00  0.00     0.279 HD
ATOM     10  C11  11 d         -12.322 205.985 115.138  0.00  0.00     0.263 C 
ATOM     11  H1   11 d         -13.895 205.448 113.918  0.00  0.00     0.280 HD
ENDBRANCH   1   3
BRANCH   1  12
ATOM     12  C2   11 d         -13.488 206.007 111.534  0.00  0.00     0.019 C 
ATOM     13  C3   11 d         -13.936 206.764 110.248  0.00  0.00     0.034 C 
ATOM     14  C4   11 d         -15.322 207.431 110.356  0.00  0.00     0.232 C 
ATOM     15  N2   11 d         -16.382 206.444 110.725  0.00  0.00    -0.075 N 
ATOM     16  C5   11 d         -16.040 205.739 112.000  0.00  0.00     0.232 C 
ATOM     17  H8   11 d         -17.322 206.955 110.837  0.00  0.00     0.277 HD
ATOM     18  H9   11 d         -16.513 205.730 109.931  0.00  0.00     0.277 HD
ATOM     19  C6   11 d         -14.652 205.059 111.949  0.00  0.00     0.034 C 
ENDBRANCH   1  12
TORSDOF 2
ENDMDL
MODEL 3
REMARK VINA RESULT:      -5.9      1.548      5.244
REMARK  2 active torsions:
REMARK  status: ('A' for Active; 'I' for Inactive)
REMARK    1  A    between atoms: N1_1  and  C1_2 
REMARK    2  A    between atoms: C1_2  and  C2_3 
ROOT
ATOM      1  C1   11 d         -12.170 206.029 114.101  0.00  0.00     0.188 C 
ATOM      2  C7   11 d         -11.009 206.591 113.253  0.00  0.00     0.040 C 
ENDROOT
BRANCH   1   3
ATOM      3  N1   11 d         -13.551 206.511 113.612  0.00  0.00    -0.064 N 
ATOM      4  C8   11 d         -14.587 205.421 113.391  0.00  0.00     0.263 C 
ATOM      5  C9   11 d         -14.730 204.876 111.946  0.00  0.00     0.262 C 
ATOM      6  N3   11 d         -14.825 205.939 110.885  0.00  0.00    -0.072 N 
ATOM      7  C10  11 d         -13.705 206.932 111.041  0.00  0.00     0.262 C 
ATOM      8  C12  11 d         -16.177 206.587 110.828  0.00  0.00     0.269 C 
ATOM      9  H21  11 d         -14.696 205.453 109.929  0.00  0.00     0.279 HD
ATOM     10  C11  11 d         -13.553 207.515 112.473  0.00  0.00     0.263 C 
ATOM     11  H1   11 d         -13.951 207.063 114.445  0.00  0.00     0.280 HD
ENDBRANCH   1   3
BRANCH   1  12
ATOM     12  C2   11 d         -11.957 206.217 115.665  0.00  0.00     0.019 C 
ATOM     13  C3   11 d         -12.404 205.079 116.631  0.00  0.00     0.034 C 
ATOM     14  C4   11 d         -13.913 205.071 116.946  0.00  0.00     0.232 C 
ATOM     15  N2   11 d         -14.367 206.380 117.506  0.00  0.00    -0.075 N 
ATOM     16  C5   11 d         -14.031 207.506 116.580  0.00  0.00     0.232 C 
ATOM     17  H8   11 d         -15.430 206.350 117.667  0.00  0.00     0.277 HD
ATOM     18  H9   11 d         -13.915 206.546 118.468  0.00  0.00     0.277 HD
ATOM     19  C6   11 d         -12.528 207.555 116.222  0.00  0.00     0.034 C 
ENDBRANCH   1  12
TORSDOF 2
ENDMDL
MODEL 4
REMARK VINA RESULT:      -5.8      1.529      2.254
REMARK  2 active torsions:
REMARK  status: ('A' for Active; 'I' for Inactive)
REMARK    1  A    between atoms: N1_1  and  C1_2 
REMARK    2  A    between atoms: C1_2  and  C2_3 
ROOT
ATOM      1  C1   11 d         -12.538 206.803 112.783  0.00  0.00     0.188 C 
ATOM      2  C7   11 d         -11.984 206.914 111.345  0.00  0.00     0.040 C 
ENDROOT
BRANCH   1   3
ATOM      3  N1   11 d         -11.423 206.694 113.843  0.00  0.00    -0.064 N 
ATOM      4  C8   11 d         -11.821 206.027 115.149  0.00  0.00     0.263 C 
ATOM      5  C9   11 d         -12.255 206.963 116.307  0.00  0.00     0.262 C 
ATOM      6  N3   11 d         -11.330 208.124 116.550  0.00  0.00    -0.072 N 
ATOM      7  C10  11 d         -11.059 208.853 115.262  0.00  0.00     0.262 C 
ATOM      8  C12  11 d         -10.075 207.729 117.272  0.00  0.00     0.269 C 
ATOM      9  H21  11 d         -11.839 208.811 117.210  0.00  0.00     0.279 HD
ATOM     10  C11  11 d         -10.599 207.945 114.089  0.00  0.00     0.263 C 
ATOM     11  H1   11 d         -10.720 205.999 113.417  0.00  0.00     0.280 HD
ENDBRANCH   1   3
BRANCH   1  12
ATOM     12  C2   11 d         -13.666 205.695 112.940  0.00  0.00     0.019 C 
ATOM     13  C3   11 d         -14.186 204.960 111.669  0.00  0.00     0.034 C 
ATOM     14  C4   11 d         -15.231 205.754 110.861  0.00  0.00     0.232 C 
ATOM     15  N2   11 d         -16.403 206.142 111.704  0.00  0.00    -0.075 N 
ATOM     16  C5   11 d         -15.967 206.922 112.904  0.00  0.00     0.232 C 
ATOM     17  H8   11 d         -17.084 206.734 111.118  0.00  0.00     0.277 HD
ATOM     18  H9   11 d         -16.944 205.264 112.009  0.00  0.00     0.277 HD
ATOM     19  C6   11 d         -14.910 206.173 113.747  0.00  0.00     0.034 C 
ENDBRANCH   1  12
TORSDOF 2
ENDMDL
MODEL 5
REMARK VINA RESULT:      -5.8      1.390      2.138
REMARK  2 active torsions:
REMARK  status: ('A' for Active; 'I' for Inactive)
REMARK    1  A    between atoms: N1_1  and  C1_2 
REMARK    2  A    between atoms: C1_2  and  C2_3 
ROOT
ATOM      1  C1   11 d         -13.333 205.790 114.043  0.00  0.00     0.188 C 
ATOM      2  C7   11 d         -14.534 205.731 115.013  0.00  0.00     0.040 C 
ENDROOT
BRANCH   1   3
ATOM      3  N1   11 d         -11.995 206.041 114.768  0.00  0.00    -0.064 N 
ATOM      4  C8   11 d         -12.019 205.853 116.276  0.00  0.00     0.263 C 
ATOM      5  C9   11 d         -12.243 207.125 117.135  0.00  0.00     0.262 C 
ATOM      6  N3   11 d         -11.385 208.298 116.747  0.00  0.00    -0.072 N 
ATOM      7  C10  11 d         -11.486 208.552 115.268  0.00  0.00     0.262 C 
ATOM      8  C12  11 d          -9.967 208.167 117.222  0.00  0.00     0.269 C 
ATOM      9  H21  11 d         -11.779 209.168 117.252  0.00  0.00     0.279 HD
ATOM     10  C11  11 d         -11.241 207.301 114.380  0.00  0.00     0.263 C 
ATOM     11  H1   11 d         -11.357 205.243 114.431  0.00  0.00     0.280 HD
ENDBRANCH   1   3
BRANCH   1  12
ATOM     12  C2   11 d         -13.569 206.760 112.806  0.00  0.00     0.019 C 
ATOM     13  C3   11 d         -14.911 207.546 112.707  0.00  0.00     0.034 C 
ATOM     14  C4   11 d         -16.088 206.721 112.148  0.00  0.00     0.232 C 
ATOM     15  N2   11 d         -15.769 206.144 110.806  0.00  0.00    -0.075 N 
ATOM     16  C5   11 d         -14.527 205.312 110.860  0.00  0.00     0.232 C 
ATOM     17  H8   11 d         -16.594 205.539 110.473  0.00  0.00     0.277 HD
ATOM     18  H9   11 d         -15.655 206.933 110.083  0.00  0.00     0.277 HD
ATOM     19  C6   11 d         -13.315 206.090 111.423  0.00  0.00     0.034 C 
ENDBRANCH   1  12
TORSDOF 2
ENDMDL
MODEL 6
REMARK VINA RESULT:      -5.7      3.855      6.139
REMARK  2 active torsions:
REMARK  status: ('A' for Active; 'I' for Inactive)
REMARK    1  A    between atoms: N1_1  and  C1_2 
REMARK    2  A    between atoms: C1_2  and  C2_3 
ROOT
ATOM      1  C1   11 d         -10.004 208.300 114.173  0.00  0.00     0.188 C 
ATOM      2  C7   11 d         -10.754 207.634 112.998  0.00  0.00     0.040 C 
ENDROOT
BRANCH   1   3
ATOM      3  N1   11 d         -10.943 208.700 115.328  0.00  0.00    -0.064 N 
ATOM      4  C8   11 d         -10.440 208.381 116.726  0.00  0.00     0.263 C 
ATOM      5  C9   11 d         -10.921 207.046 117.353  0.00  0.00     0.262 C 
ATOM      6  N3   11 d         -12.401 206.802 117.240  0.00  0.00    -0.072 N 
ATOM      7  C10  11 d         -12.853 206.989 115.817  0.00  0.00     0.262 C 
ATOM      8  C12  11 d         -13.203 207.609 118.219  0.00  0.00     0.269 C 
ATOM      9  H21  11 d         -12.579 205.769 117.502  0.00  0.00     0.279 HD
ATOM     10  C11  11 d         -12.407 208.329 115.169  0.00  0.00     0.263 C 
ATOM     11  H1   11 d         -10.945 209.776 115.308  0.00  0.00     0.280 HD
ENDBRANCH   1   3
BRANCH   1  12
ATOM     12  C2   11 d          -9.033 209.472 113.717  0.00  0.00     0.019 C 
ATOM     13  C3   11 d          -8.561 209.530 112.233  0.00  0.00     0.034 C 
ATOM     14  C4   11 d          -7.392 208.579 111.903  0.00  0.00     0.232 C 
ATOM     15  N2   11 d          -6.214 208.823 112.791  0.00  0.00    -0.075 N 
ATOM     16  C5   11 d          -6.595 208.704 114.234  0.00  0.00     0.232 C 
ATOM     17  H8   11 d          -5.442 208.111 112.562  0.00  0.00     0.277 HD
ATOM     18  H9   11 d          -5.802 209.798 112.597  0.00  0.00     0.277 HD
ATOM     19  C6   11 d          -7.771 209.631 114.616  0.00  0.00     0.034 C 
ENDBRANCH   1  12
TORSDOF 2
ENDMDL
MODEL 7
REMARK VINA RESULT:      -5.6      2.536      5.242
REMARK  2 active torsions:
REMARK  status: ('A' for Active; 'I' for Inactive)
REMARK    1  A    between atoms: N1_1  and  C1_2 
REMARK    2  A    between atoms: C1_2  and  C2_3 
ROOT
ATOM      1  C1   11 d         -12.058 207.777 113.318  0.00  0.00     0.188 C 
ATOM      2  C7   11 d         -12.237 208.175 114.799  0.00  0.00     0.040 C 
ENDROOT
BRANCH   1   3
ATOM      3  N1   11 d         -13.017 206.650 112.884  0.00  0.00    -0.064 N 
ATOM      4  C8   11 d         -13.570 206.763 111.474  0.00  0.00     0.263 C 
ATOM      5  C9   11 d         -14.960 207.435 111.320  0.00  0.00     0.262 C 
ATOM      6  N3   11 d         -16.006 206.927 112.275  0.00  0.00    -0.072 N 
ATOM      7  C10  11 d         -15.482 206.954 113.685  0.00  0.00     0.262 C 
ATOM      8  C12  11 d         -16.555 205.587 111.881  0.00  0.00     0.269 C 
ATOM      9  H21  11 d         -16.844 207.608 112.228  0.00  0.00     0.279 HD
ATOM     10  C11  11 d         -14.102 206.266 113.875  0.00  0.00     0.263 C 
ATOM     11  H1   11 d         -12.392 205.775 112.833  0.00  0.00     0.280 HD
ENDBRANCH   1   3
BRANCH   1  12
ATOM     12  C2   11 d         -10.545 207.503 112.918  0.00  0.00     0.019 C 
ATOM     13  C3   11 d          -9.409 208.123 113.786  0.00  0.00     0.034 C 
ATOM     14  C4   11 d          -9.111 209.603 113.476  0.00  0.00     0.232 C 
ATOM     15  N2   11 d          -8.778 209.809 112.033  0.00  0.00    -0.075 N 
ATOM     16  C5   11 d          -9.874 209.300 111.151  0.00  0.00     0.232 C 
ATOM     17  H8   11 d          -8.624 210.857 111.848  0.00  0.00     0.277 HD
ATOM     18  H9   11 d          -7.852 209.315 111.794  0.00  0.00     0.277 HD
ATOM     19  C6   11 d         -10.220 207.819 111.427  0.00  0.00     0.034 C 
ENDBRANCH   1  12
TORSDOF 2
ENDMDL
MODEL 8
REMARK VINA RESULT:      -5.4      3.005      4.282
REMARK  2 active torsions:
REMARK  status: ('A' for Active; 'I' for Inactive)
REMARK    1  A    between atoms: N1_1  and  C1_2 
REMARK    2  A    between atoms: C1_2  and  C2_3 
ROOT
ATOM      1  C1   11 d         -11.872 207.814 114.281  0.00  0.00     0.188 C 
ATOM      2  C7   11 d         -11.259 208.840 115.258  0.00  0.00     0.040 C 
ENDROOT
BRANCH   1   3
ATOM      3  N1   11 d         -12.803 206.806 114.985  0.00  0.00    -0.064 N 
ATOM      4  C8   11 d         -13.891 207.413 115.855  0.00  0.00     0.263 C 
ATOM      5  C9   11 d         -13.581 207.546 117.369  0.00  0.00     0.262 C 
ATOM      6  N3   11 d         -13.010 206.306 118.000  0.00  0.00    -0.072 N 
ATOM      7  C10  11 d         -11.844 205.801 117.194  0.00  0.00     0.262 C 
ATOM      8  C12  11 d         -14.046 205.250 118.254  0.00  0.00     0.269 C 
ATOM      9  H21  11 d         -12.634 206.582 118.974  0.00  0.00     0.279 HD
ATOM     10  C11  11 d         -12.132 205.633 115.677  0.00  0.00     0.263 C 
ATOM     11  H1   11 d         -13.358 206.352 114.182  0.00  0.00     0.280 HD
ENDBRANCH   1   3
BRANCH   1  12
ATOM     12  C2   11 d         -10.797 207.122 113.337  0.00  0.00     0.019 C 
ATOM     13  C3   11 d          -9.523 207.922 112.929  0.00  0.00     0.034 C 
ATOM     14  C4   11 d          -9.743 208.916 111.771  0.00  0.00     0.232 C 
ATOM     15  N2   11 d         -10.292 208.237 110.557  0.00  0.00    -0.075 N 
ATOM     16  C5   11 d         -11.563 207.514 110.875  0.00  0.00     0.232 C 
ATOM     17  H8   11 d         -10.475 208.970 109.792  0.00  0.00     0.277 HD
ATOM     18  H9   11 d          -9.566 207.551 110.159  0.00  0.00     0.277 HD
ATOM     19  C6   11 d         -11.401 206.509 112.038  0.00  0.00     0.034 C 
ENDBRANCH   1  12
TORSDOF 2
ENDMDL
MODEL 9
REMARK VINA RESULT:      -5.4      2.247      5.236
REMARK  2 active torsions:
REMARK  status: ('A' for Active; 'I' for Inactive)
REMARK    1  A    between atoms: N1_1  and  C1_2 
REMARK    2  A    between atoms: C1_2  and  C2_3 
ROOT
ATOM      1  C1   11 d         -14.063 206.989 115.084  0.00  0.00     0.188 C 
ATOM      2  C7   11 d         -15.106 205.898 114.759  0.00  0.00     0.040 C 
ENDROOT
BRANCH   1   3
ATOM      3  N1   11 d         -13.499 207.668 113.820  0.00  0.00    -0.064 N 
ATOM      4  C8   11 d         -14.123 207.231 112.505  0.00  0.00     0.263 C 
ATOM      5  C9   11 d         -13.390 206.110 111.722  0.00  0.00     0.262 C 
ATOM      6  N3   11 d         -11.908 206.318 111.577  0.00  0.00    -0.072 N 
ATOM      7  C10  11 d         -11.289 206.613 112.917  0.00  0.00     0.262 C 
ATOM      8  C12  11 d         -11.561 207.341 110.535  0.00  0.00     0.269 C 
ATOM      9  H21  11 d         -11.484 205.389 111.223  0.00  0.00     0.279 HD
ATOM     10  C11  11 d         -11.986 207.750 113.714  0.00  0.00     0.263 C 
ATOM     11  H1   11 d         -13.809 208.694 113.909  0.00  0.00     0.280 HD
ENDBRANCH   1   3
BRANCH   1  12
ATOM     12  C2   11 d         -12.936 206.503 116.093  0.00  0.00     0.019 C 
ATOM     13  C3   11 d         -13.029 205.070 116.698  0.00  0.00     0.034 C 
ATOM     14  C4   11 d         -13.998 204.948 117.891  0.00  0.00     0.232 C 
ATOM     15  N2   11 d         -13.651 205.908 118.984  0.00  0.00    -0.075 N 
ATOM     16  C5   11 d         -13.623 207.315 118.474  0.00  0.00     0.232 C 
ATOM     17  H8   11 d         -14.376 205.826 119.774  0.00  0.00     0.277 HD
ATOM     18  H9   11 d         -12.698 205.651 119.412  0.00  0.00     0.277 HD
ATOM     19  C6   11 d         -12.672 207.491 117.267  0.00  0.00     0.034 C 
ENDBRANCH   1  12
TORSDOF 2
ENDMDL
MODEL 10
REMARK VINA RESULT:      -5.4      1.640      5.715
REMARK  2 active torsions:
REMARK  status: ('A' for Active; 'I' for Inactive)
REMARK    1  A    between atoms: N1_1  and  C1_2 
REMARK    2  A    between atoms: C1_2  and  C2_3 
ROOT
ATOM      1  C1   11 d         -12.576 207.046 114.320  0.00  0.00     0.188 C 
ATOM      2  C7   11 d         -11.237 206.728 113.619  0.00  0.00     0.040 C 
ENDROOT
BRANCH   1   3
ATOM      3  N1   11 d         -13.690 207.434 113.326  0.00  0.00    -0.064 N 
ATOM      4  C8   11 d         -15.103 207.421 113.885  0.00  0.00     0.263 C 
ATOM      5  C9   11 d         -15.930 206.128 113.661  0.00  0.00     0.262 C 
ATOM      6  N3   11 d         -15.899 205.604 112.251  0.00  0.00    -0.072 N 
ATOM      7  C10  11 d         -14.478 205.496 111.767  0.00  0.00     0.262 C 
ATOM      8  C12  11 d         -16.775 206.387 111.318  0.00  0.00     0.269 C 
ATOM      9  H21  11 d         -16.311 204.606 112.267  0.00  0.00     0.279 HD
ATOM     10  C11  11 d         -13.631 206.784 111.955  0.00  0.00     0.263 C 
ATOM     11  H1   11 d         -13.516 208.477 113.127  0.00  0.00     0.280 HD
ENDBRANCH   1   3
BRANCH   1  12
ATOM     12  C2   11 d         -12.428 208.067 115.528  0.00  0.00     0.019 C 
ATOM     13  C3   11 d         -11.001 208.461 116.015  0.00  0.00     0.034 C 
ATOM     14  C4   11 d         -10.342 207.427 116.949  0.00  0.00     0.232 C 
ATOM     15  N2   11 d         -11.194 207.139 118.143  0.00  0.00    -0.075 N 
ATOM     16  C5   11 d         -12.557 206.681 117.733  0.00  0.00     0.232 C 
ATOM     17  H8   11 d         -10.723 206.381 118.743  0.00  0.00     0.277 HD
ATOM     18  H9   11 d         -11.269 208.017 118.761  0.00  0.00     0.277 HD
ATOM     19  C6   11 d         -13.261 207.679 116.786  0.00  0.00     0.034 C 
ENDBRANCH   1  12
TORSDOF 2
ENDMDL
