MODEL 1
REMARK VINA RESULT:      -6.6      0.000      0.000
REMARK  2 active torsions:
REMARK  status: ('A' for Active; 'I' for Inactive)
REMARK    1  A    between atoms: C1_1  and  C9_10 
REMARK    2  A    between atoms: N2_11  and  C10_12 
ROOT
ATOM      1  C1   11 d         -12.997 207.603 113.398  0.00  0.00     0.009 A 
ATOM      2  C2   11 d         -14.119 206.957 112.888  0.00  0.00     0.004 A 
ATOM      3  C3   11 d         -13.706 206.194 111.810  0.00  0.00     0.043 A 
ATOM      4  C4   11 d         -14.608 205.418 111.072  0.00  0.00     0.030 A 
ATOM      5  C5   11 d         -15.962 205.421 111.465  0.00  0.00     0.002 A 
ATOM      6  C6   11 d         -16.384 206.183 112.577  0.00  0.00     0.001 A 
ATOM      7  C7   11 d         -15.458 206.957 113.306  0.00  0.00     0.014 A 
ATOM      8  N1   11 d         -12.376 206.331 111.660  0.00  0.00    -0.364 N 
ATOM      9  C8   11 d         -11.923 207.169 112.623  0.00  0.00     0.102 A 
ATOM     10  H5   11 d         -11.788 205.866 110.926  0.00  0.00     0.165 HD
ENDROOT
BRANCH   1  11
ATOM     11  C9   11 d         -12.888 208.515 114.563  0.00  0.00     0.133 C 
ATOM     12  N2   11 d         -12.794 208.178 115.833  0.00  0.00    -0.234 NA
BRANCH  12  13
ATOM     13  C10  11 d         -12.985 206.822 116.285  0.00  0.00     0.192 A 
ATOM     14  N3   11 d         -14.158 206.198 116.560  0.00  0.00    -0.235 NA
ATOM     15  C11  11 d         -13.931 204.926 116.981  0.00  0.00     0.127 A 
ATOM     16  C12  11 d         -12.570 204.652 117.019  0.00  0.00     0.072 A 
ATOM     17  S1   11 d         -11.854 205.883 116.569  0.00  0.00    -0.061 SA
ENDBRANCH  12  13
ENDBRANCH   1  11
TORSDOF 2
ENDMDL
MODEL 2
REMARK VINA RESULT:      -6.4      1.892      2.421
REMARK  2 active torsions:
REMARK  status: ('A' for Active; 'I' for Inactive)
REMARK    1  A    between atoms: C1_1  and  C9_10 
REMARK    2  A    between atoms: N2_11  and  C10_12 
ROOT
ATOM      1  C1   11 d         -12.136 206.460 112.096  0.00  0.00     0.009 A 
ATOM      2  C2   11 d         -13.490 206.311 111.815  0.00  0.00     0.004 A 
ATOM      3  C3   11 d         -13.724 206.881 110.576  0.00  0.00     0.043 A 
ATOM      4  C4   11 d         -15.002 206.896 110.005  0.00  0.00     0.030 A 
ATOM      5  C5   11 d         -16.057 206.297 110.722  0.00  0.00     0.002 A 
ATOM      6  C6   11 d         -15.818 205.694 111.978  0.00  0.00     0.001 A 
ATOM      7  C7   11 d         -14.523 205.691 112.535  0.00  0.00     0.014 A 
ATOM      8  N1   11 d         -12.563 207.351 110.083  0.00  0.00    -0.364 N 
ATOM      9  C8   11 d         -11.584 207.091 110.982  0.00  0.00     0.102 A 
ATOM     10  H5   11 d         -12.436 207.831 109.160  0.00  0.00     0.165 HD
ENDROOT
BRANCH   1  11
ATOM     11  C9   11 d         -11.367 206.003 113.280  0.00  0.00     0.133 C 
ATOM     12  N2   11 d         -11.646 206.229 114.547  0.00  0.00    -0.234 NA
BRANCH  12  13
ATOM     13  C10  11 d         -12.677 207.152 114.955  0.00  0.00     0.192 A 
ATOM     14  N3   11 d         -12.837 208.440 114.562  0.00  0.00    -0.235 NA
ATOM     15  C11  11 d         -13.914 208.993 115.180  0.00  0.00     0.127 A 
ATOM     16  C12  11 d         -14.516 208.082 116.037  0.00  0.00     0.072 A 
ATOM     17  S1   11 d         -13.739 206.809 115.953  0.00  0.00    -0.061 SA
ENDBRANCH  12  13
ENDBRANCH   1  11
TORSDOF 2
ENDMDL
MODEL 3
REMARK VINA RESULT:      -6.3      1.586      2.212
REMARK  2 active torsions:
REMARK  status: ('A' for Active; 'I' for Inactive)
REMARK    1  A    between atoms: C1_1  and  C9_10 
REMARK    2  A    between atoms: N2_11  and  C10_12 
ROOT
ATOM      1  C1   11 d         -13.226 207.699 113.727  0.00  0.00     0.009 A 
ATOM      2  C2   11 d         -13.882 207.207 112.603  0.00  0.00     0.004 A 
ATOM      3  C3   11 d         -15.231 207.137 112.907  0.00  0.00     0.043 A 
ATOM      4  C4   11 d         -16.168 206.675 111.976  0.00  0.00     0.030 A 
ATOM      5  C5   11 d         -15.704 206.291 110.701  0.00  0.00     0.002 A 
ATOM      6  C6   11 d         -14.331 206.381 110.381  0.00  0.00     0.001 A 
ATOM      7  C7   11 d         -13.404 206.849 111.334  0.00  0.00     0.014 A 
ATOM      8  N1   11 d         -15.423 207.588 114.160  0.00  0.00    -0.364 N 
ATOM      9  C8   11 d         -14.221 207.949 114.670  0.00  0.00     0.102 A 
ATOM     10  H5   11 d         -16.345 207.653 114.656  0.00  0.00     0.165 HD
ENDROOT
BRANCH   1  11
ATOM     11  C9   11 d         -11.783 207.988 113.920  0.00  0.00     0.133 C 
ATOM     12  N2   11 d         -10.980 207.464 114.824  0.00  0.00    -0.234 NA
BRANCH  12  13
ATOM     13  C10  11 d         -11.470 206.650 115.909  0.00  0.00     0.192 A 
ATOM     14  N3   11 d         -11.954 205.384 115.841  0.00  0.00    -0.235 NA
ATOM     15  C11  11 d         -12.339 204.959 117.074  0.00  0.00     0.127 A 
ATOM     16  C12  11 d         -12.137 205.949 118.026  0.00  0.00     0.072 A 
ATOM     17  S1   11 d         -11.557 207.132 117.324  0.00  0.00    -0.061 SA
ENDBRANCH  12  13
ENDBRANCH   1  11
TORSDOF 2
ENDMDL
MODEL 4
REMARK VINA RESULT:      -6.3      2.065      5.008
REMARK  2 active torsions:
REMARK  status: ('A' for Active; 'I' for Inactive)
REMARK    1  A    between atoms: C1_1  and  C9_10 
REMARK    2  A    between atoms: N2_11  and  C10_12 
ROOT
ATOM      1  C1   11 d         -12.942 207.696 114.266  0.00  0.00     0.009 A 
ATOM      2  C2   11 d         -12.935 206.893 115.402  0.00  0.00     0.004 A 
ATOM      3  C3   11 d         -13.767 207.486 116.335  0.00  0.00     0.043 A 
ATOM      4  C4   11 d         -13.974 206.919 117.598  0.00  0.00     0.030 A 
ATOM      5  C5   11 d         -13.318 205.707 117.897  0.00  0.00     0.002 A 
ATOM      6  C6   11 d         -12.484 205.088 116.939  0.00  0.00     0.001 A 
ATOM      7  C7   11 d         -12.290 205.678 115.673  0.00  0.00     0.014 A 
ATOM      8  N1   11 d         -14.297 208.603 115.804  0.00  0.00    -0.364 N 
ATOM      9  C8   11 d         -13.823 208.740 114.543  0.00  0.00     0.102 A 
ATOM     10  H5   11 d         -14.967 209.254 116.281  0.00  0.00     0.165 HD
ENDROOT
BRANCH   1  11
ATOM     11  C9   11 d         -12.239 207.499 112.973  0.00  0.00     0.133 C 
ATOM     12  N2   11 d         -12.768 207.108 111.831  0.00  0.00    -0.234 NA
BRANCH  12  13
ATOM     13  C10  11 d         -14.120 206.618 111.737  0.00  0.00     0.192 A 
ATOM     14  N3   11 d         -14.607 205.439 112.199  0.00  0.00    -0.235 NA
ATOM     15  C11  11 d         -15.929 205.324 111.902  0.00  0.00     0.127 A 
ATOM     16  C12  11 d         -16.379 206.437 111.205  0.00  0.00     0.072 A 
ATOM     17  S1   11 d         -15.218 207.363 111.043  0.00  0.00    -0.061 SA
ENDBRANCH  12  13
ENDBRANCH   1  11
TORSDOF 2
ENDMDL
MODEL 5
REMARK VINA RESULT:      -6.3      1.581      2.414
REMARK  2 active torsions:
REMARK  status: ('A' for Active; 'I' for Inactive)
REMARK    1  A    between atoms: C1_1  and  C9_10 
REMARK    2  A    between atoms: N2_11  and  C10_12 
ROOT
ATOM      1  C1   11 d         -13.373 206.192 113.542  0.00  0.00     0.009 A 
ATOM      2  C2   11 d         -14.188 206.473 112.450  0.00  0.00     0.004 A 
ATOM      3  C3   11 d         -13.366 206.641 111.350  0.00  0.00     0.043 A 
ATOM      4  C4   11 d         -13.887 206.939 110.085  0.00  0.00     0.030 A 
ATOM      5  C5   11 d         -15.286 207.051 109.952  0.00  0.00     0.002 A 
ATOM      6  C6   11 d         -16.129 206.859 111.069  0.00  0.00     0.001 A 
ATOM      7  C7   11 d         -15.583 206.560 112.334  0.00  0.00     0.014 A 
ATOM      8  N1   11 d         -12.088 206.452 111.724  0.00  0.00    -0.364 N 
ATOM      9  C8   11 d         -12.071 206.162 113.047  0.00  0.00     0.102 A 
ATOM     10  H5   11 d         -11.248 206.513 111.098  0.00  0.00     0.165 HD
ENDROOT
BRANCH   1  11
ATOM     11  C9   11 d         -13.753 205.905 114.948  0.00  0.00     0.133 C 
ATOM     12  N2   11 d         -13.296 206.497 116.033  0.00  0.00    -0.234 NA
BRANCH  12  13
ATOM     13  C10  11 d         -12.180 207.409 116.000  0.00  0.00     0.192 A 
ATOM     14  N3   11 d         -12.083 208.574 115.312  0.00  0.00    -0.235 NA
ATOM     15  C11  11 d         -10.865 209.144 115.516  0.00  0.00     0.127 A 
ATOM     16  C12  11 d         -10.083 208.357 116.352  0.00  0.00     0.072 A 
ATOM     17  S1   11 d         -10.893 207.158 116.723  0.00  0.00    -0.061 SA
ENDBRANCH  12  13
ENDBRANCH   1  11
TORSDOF 2
ENDMDL
MODEL 6
REMARK VINA RESULT:      -6.2      4.839      6.128
REMARK  2 active torsions:
REMARK  status: ('A' for Active; 'I' for Inactive)
REMARK    1  A    between atoms: C1_1  and  C9_10 
REMARK    2  A    between atoms: N2_11  and  C10_12 
ROOT
ATOM      1  C1   11 d          -9.272 208.924 113.743  0.00  0.00     0.009 A 
ATOM      2  C2   11 d         -10.136 208.146 112.980  0.00  0.00     0.004 A 
ATOM      3  C3   11 d         -10.018 208.560 111.665  0.00  0.00     0.043 A 
ATOM      4  C4   11 d         -10.767 207.969 110.641  0.00  0.00     0.030 A 
ATOM      5  C5   11 d         -11.644 206.919 110.980  0.00  0.00     0.002 A 
ATOM      6  C6   11 d         -11.752 206.479 112.319  0.00  0.00     0.001 A 
ATOM      7  C7   11 d         -10.988 207.089 113.335  0.00  0.00     0.014 A 
ATOM      8  N1   11 d          -9.101 209.542 111.595  0.00  0.00    -0.364 N 
ATOM      9  C8   11 d          -8.623 209.767 112.842  0.00  0.00     0.102 A 
ATOM     10  H5   11 d          -8.802 210.044 110.724  0.00  0.00     0.165 HD
ENDROOT
BRANCH   1  11
ATOM     11  C9   11 d          -8.998 208.869 115.201  0.00  0.00     0.133 C 
ATOM     12  N2   11 d          -7.831 209.006 115.798  0.00  0.00    -0.234 NA
BRANCH  12  13
ATOM     13  C10  11 d          -6.591 209.038 115.063  0.00  0.00     0.192 A 
ATOM     14  N3   11 d          -5.971 208.005 114.439  0.00  0.00    -0.235 NA
ATOM     15  C11  11 d          -4.808 208.425 113.872  0.00  0.00     0.127 A 
ATOM     16  C12  11 d          -4.597 209.775 114.114  0.00  0.00     0.072 A 
ATOM     17  S1   11 d          -5.753 210.271 114.920  0.00  0.00    -0.061 SA
ENDBRANCH  12  13
ENDBRANCH   1  11
TORSDOF 2
ENDMDL
MODEL 7
REMARK VINA RESULT:      -6.2      2.196      3.773
REMARK  2 active torsions:
REMARK  status: ('A' for Active; 'I' for Inactive)
REMARK    1  A    between atoms: C1_1  and  C9_10 
REMARK    2  A    between atoms: N2_11  and  C10_12 
ROOT
ATOM      1  C1   11 d         -14.651 205.984 111.557  0.00  0.00     0.009 A 
ATOM      2  C2   11 d         -13.463 206.482 111.033  0.00  0.00     0.004 A 
ATOM      3  C3   11 d         -13.784 207.247 109.926  0.00  0.00     0.043 A 
ATOM      4  C4   11 d         -12.799 207.891 109.168  0.00  0.00     0.030 A 
ATOM      5  C5   11 d         -11.455 207.752 109.571  0.00  0.00     0.002 A 
ATOM      6  C6   11 d         -11.125 206.988 110.713  0.00  0.00     0.001 A 
ATOM      7  C7   11 d         -12.134 206.349 111.462  0.00  0.00     0.014 A 
ATOM      8  N1   11 d         -15.121 207.253 109.770  0.00  0.00    -0.364 N 
ATOM      9  C8   11 d         -15.667 206.506 110.759  0.00  0.00     0.102 A 
ATOM     10  H5   11 d         -15.651 207.753 109.016  0.00  0.00     0.165 HD
ENDROOT
BRANCH   1  11
ATOM     11  C9   11 d         -14.865 205.131 112.753  0.00  0.00     0.133 C 
ATOM     12  N2   11 d         -14.796 205.499 114.016  0.00  0.00    -0.234 NA
BRANCH  12  13
ATOM     13  C10  11 d         -14.294 206.791 114.415  0.00  0.00     0.192 A 
ATOM     14  N3   11 d         -14.950 207.978 114.391  0.00  0.00    -0.235 NA
ATOM     15  C11  11 d         -14.136 208.978 114.824  0.00  0.00     0.127 A 
ATOM     16  C12  11 d         -12.877 208.488 115.144  0.00  0.00     0.072 A 
ATOM     17  S1   11 d         -12.892 207.016 114.892  0.00  0.00    -0.061 SA
ENDBRANCH  12  13
ENDBRANCH   1  11
TORSDOF 2
ENDMDL
MODEL 8
REMARK VINA RESULT:      -6.1      1.346      2.487
REMARK  2 active torsions:
REMARK  status: ('A' for Active; 'I' for Inactive)
REMARK    1  A    between atoms: C1_1  and  C9_10 
REMARK    2  A    between atoms: N2_11  and  C10_12 
ROOT
ATOM      1  C1   11 d         -14.551 207.639 113.996  0.00  0.00     0.009 A 
ATOM      2  C2   11 d         -13.447 207.430 113.175  0.00  0.00     0.004 A 
ATOM      3  C3   11 d         -13.874 206.693 112.084  0.00  0.00     0.043 A 
ATOM      4  C4   11 d         -12.991 206.313 111.066  0.00  0.00     0.030 A 
ATOM      5  C5   11 d         -11.644 206.714 111.172  0.00  0.00     0.002 A 
ATOM      6  C6   11 d         -11.209 207.484 112.274  0.00  0.00     0.001 A 
ATOM      7  C7   11 d         -12.116 207.856 113.288  0.00  0.00     0.014 A 
ATOM      8  N1   11 d         -15.195 206.467 112.197  0.00  0.00    -0.364 N 
ATOM      9  C8   11 d         -15.630 207.046 113.341  0.00  0.00     0.102 A 
ATOM     10  H5   11 d         -15.789 205.937 111.514  0.00  0.00     0.165 HD
ENDROOT
BRANCH   1  11
ATOM     11  C9   11 d         -14.643 208.389 115.273  0.00  0.00     0.133 C 
ATOM     12  N2   11 d         -14.190 208.012 116.452  0.00  0.00    -0.234 NA
BRANCH  12  13
ATOM     13  C10  11 d         -13.695 206.680 116.696  0.00  0.00     0.192 A 
ATOM     14  N3   11 d         -14.420 205.546 116.870  0.00  0.00    -0.235 NA
ATOM     15  C11  11 d         -13.597 204.489 117.098  0.00  0.00     0.127 A 
ATOM     16  C12  11 d         -12.267 204.887 117.100  0.00  0.00     0.072 A 
ATOM     17  S1   11 d         -12.240 206.358 116.841  0.00  0.00    -0.061 SA
ENDBRANCH  12  13
ENDBRANCH   1  11
TORSDOF 2
ENDMDL
MODEL 9
REMARK VINA RESULT:      -6.1      2.755      5.170
REMARK  2 active torsions:
REMARK  status: ('A' for Active; 'I' for Inactive)
REMARK    1  A    between atoms: C1_1  and  C9_10 
REMARK    2  A    between atoms: N2_11  and  C10_12 
ROOT
ATOM      1  C1   11 d         -11.653 206.822 113.114  0.00  0.00     0.009 A 
ATOM      2  C2   11 d         -10.689 207.792 113.369  0.00  0.00     0.004 A 
ATOM      3  C3   11 d         -10.202 208.226 112.149  0.00  0.00     0.043 A 
ATOM      4  C4   11 d          -9.208 209.209 112.063  0.00  0.00     0.030 A 
ATOM      5  C5   11 d          -8.718 209.763 113.263  0.00  0.00     0.002 A 
ATOM      6  C6   11 d          -9.228 209.337 114.511  0.00  0.00     0.001 A 
ATOM      7  C7   11 d         -10.229 208.346 114.573  0.00  0.00     0.014 A 
ATOM      8  N1   11 d         -10.847 207.577 111.163  0.00  0.00    -0.364 N 
ATOM      9  C8   11 d         -11.743 206.732 111.726  0.00  0.00     0.102 A 
ATOM     10  H5   11 d         -10.687 207.705 110.134  0.00  0.00     0.165 HD
ENDROOT
BRANCH   1  11
ATOM     11  C9   11 d         -12.494 206.060 114.070  0.00  0.00     0.133 C 
ATOM     12  N2   11 d         -13.741 205.672 113.899  0.00  0.00    -0.234 NA
BRANCH  12  13
ATOM     13  C10  11 d         -14.543 206.125 112.789  0.00  0.00     0.192 A 
ATOM     14  N3   11 d         -15.041 207.369 112.581  0.00  0.00    -0.235 NA
ATOM     15  C11  11 d         -15.766 207.402 111.431  0.00  0.00     0.127 A 
ATOM     16  C12  11 d         -15.792 206.153 110.825  0.00  0.00     0.072 A 
ATOM     17  S1   11 d         -14.994 205.225 111.680  0.00  0.00    -0.061 SA
ENDBRANCH  12  13
ENDBRANCH   1  11
TORSDOF 2
ENDMDL
MODEL 10
REMARK VINA RESULT:      -5.7      7.330      8.805
REMARK  2 active torsions:
REMARK  status: ('A' for Active; 'I' for Inactive)
REMARK    1  A    between atoms: C1_1  and  C9_10 
REMARK    2  A    between atoms: N2_11  and  C10_12 
ROOT
ATOM      1  C1   11 d          -5.644 209.844 114.074  0.00  0.00     0.009 A 
ATOM      2  C2   11 d          -6.849 209.349 113.584  0.00  0.00     0.004 A 
ATOM      3  C3   11 d          -7.778 209.429 114.606  0.00  0.00     0.043 A 
ATOM      4  C4   11 d          -9.100 209.003 114.430  0.00  0.00     0.030 A 
ATOM      5  C5   11 d          -9.471 208.497 113.168  0.00  0.00     0.002 A 
ATOM      6  C6   11 d          -8.531 208.433 112.116  0.00  0.00     0.001 A 
ATOM      7  C7   11 d          -7.204 208.868 112.315  0.00  0.00     0.014 A 
ATOM      8  N1   11 d          -7.193 209.973 115.689  0.00  0.00    -0.364 N 
ATOM      9  C8   11 d          -5.903 210.248 115.383  0.00  0.00     0.102 A 
ATOM     10  H5   11 d          -7.657 210.158 116.612  0.00  0.00     0.165 HD
ENDROOT
BRANCH   1  11
ATOM     11  C9   11 d          -4.342 210.003 113.379  0.00  0.00     0.133 C 
ATOM     12  N2   11 d          -3.271 209.248 113.513  0.00  0.00    -0.234 NA
BRANCH  12  13
ATOM     13  C10  11 d          -3.163 208.241 114.541  0.00  0.00     0.192 A 
ATOM     14  N3   11 d          -2.713 208.400 115.811  0.00  0.00    -0.235 NA
ATOM     15  C11  11 d          -2.741 207.213 116.473  0.00  0.00     0.127 A 
ATOM     16  C12  11 d          -3.205 206.196 115.650  0.00  0.00     0.072 A 
ATOM     17  S1   11 d          -3.509 206.801 114.319  0.00  0.00    -0.061 SA
ENDBRANCH  12  13
ENDBRANCH   1  11
TORSDOF 2
ENDMDL
MODEL 11
REMARK VINA RESULT:      -5.7      6.407      7.644
REMARK  2 active torsions:
REMARK  status: ('A' for Active; 'I' for Inactive)
REMARK    1  A    between atoms: C1_1  and  C9_10 
REMARK    2  A    between atoms: N2_11  and  C10_12 
ROOT
ATOM      1  C1   11 d          -5.967 210.147 114.667  0.00  0.00     0.009 A 
ATOM      2  C2   11 d          -7.126 209.624 114.101  0.00  0.00     0.004 A 
ATOM      3  C3   11 d          -6.777 209.058 112.887  0.00  0.00     0.043 A 
ATOM      4  C4   11 d          -7.728 208.443 112.064  0.00  0.00     0.030 A 
ATOM      5  C5   11 d          -9.064 208.401 112.511  0.00  0.00     0.002 A 
ATOM      6  C6   11 d          -9.421 208.960 113.760  0.00  0.00     0.001 A 
ATOM      7  C7   11 d          -8.446 209.574 114.572  0.00  0.00     0.014 A 
ATOM      8  N1   11 d          -5.451 209.195 112.704  0.00  0.00    -0.364 N 
ATOM      9  C8   11 d          -4.937 209.839 113.779  0.00  0.00     0.102 A 
ATOM     10  H5   11 d          -4.906 208.858 111.873  0.00  0.00     0.165 HD
ENDROOT
BRANCH   1  11
ATOM     11  C9   11 d          -5.787 210.834 115.970  0.00  0.00     0.133 C 
ATOM     12  N2   11 d          -5.574 210.274 117.143  0.00  0.00    -0.234 NA
BRANCH  12  13
ATOM     13  C10  11 d          -5.686 208.851 117.347  0.00  0.00     0.192 A 
ATOM     14  N3   11 d          -4.760 207.900 117.069  0.00  0.00    -0.235 NA
ATOM     15  C11  11 d          -5.240 206.666 117.382  0.00  0.00     0.127 A 
ATOM     16  C12  11 d          -6.535 206.749 117.875  0.00  0.00     0.072 A 
ATOM     17  S1   11 d          -6.920 208.192 117.881  0.00  0.00    -0.061 SA
ENDBRANCH  12  13
ENDBRANCH   1  11
TORSDOF 2
ENDMDL
MODEL 12
REMARK VINA RESULT:      -5.7      4.525      5.951
REMARK  2 active torsions:
REMARK  status: ('A' for Active; 'I' for Inactive)
REMARK    1  A    between atoms: C1_1  and  C9_10 
REMARK    2  A    between atoms: N2_11  and  C10_12 
ROOT
ATOM      1  C1   11 d          -9.454 208.782 113.479  0.00  0.00     0.009 A 
ATOM      2  C2   11 d         -10.559 207.947 113.347  0.00  0.00     0.004 A 
ATOM      3  C3   11 d         -11.212 207.924 114.566  0.00  0.00     0.043 A 
ATOM      4  C4   11 d         -12.372 207.165 114.762  0.00  0.00     0.030 A 
ATOM      5  C5   11 d         -12.875 206.427 113.671  0.00  0.00     0.002 A 
ATOM      6  C6   11 d         -12.222 206.465 112.418  0.00  0.00     0.001 A 
ATOM      7  C7   11 d         -11.055 207.236 112.244  0.00  0.00     0.014 A 
ATOM      8  N1   11 d         -10.562 208.728 115.427  0.00  0.00    -0.364 N 
ATOM      9  C8   11 d          -9.502 209.272 114.784  0.00  0.00     0.102 A 
ATOM     10  H5   11 d         -10.832 208.908 116.425  0.00  0.00     0.165 HD
ENDROOT
BRANCH   1  11
ATOM     11  C9   11 d          -8.441 209.168 112.465  0.00  0.00     0.133 C 
ATOM     12  N2   11 d          -7.155 209.371 112.662  0.00  0.00    -0.234 NA
BRANCH  12  13
ATOM     13  C10  11 d          -6.578 209.431 113.982  0.00  0.00     0.192 A 
ATOM     14  N3   11 d          -6.491 210.510 114.799  0.00  0.00    -0.235 NA
ATOM     15  C11  11 d          -5.861 210.177 115.957  0.00  0.00     0.127 A 
ATOM     16  C12  11 d          -5.484 208.841 115.950  0.00  0.00     0.072 A 
ATOM     17  S1   11 d          -5.924 208.259 114.647  0.00  0.00    -0.061 SA
ENDBRANCH  12  13
ENDBRANCH   1  11
TORSDOF 2
ENDMDL
MODEL 13
REMARK VINA RESULT:      -5.6      2.096      3.032
REMARK  2 active torsions:
REMARK  status: ('A' for Active; 'I' for Inactive)
REMARK    1  A    between atoms: C1_1  and  C9_10 
REMARK    2  A    between atoms: N2_11  and  C10_12 
ROOT
ATOM      1  C1   11 d         -13.172 207.593 115.733  0.00  0.00     0.009 A 
ATOM      2  C2   11 d         -12.811 207.233 114.438  0.00  0.00     0.004 A 
ATOM      3  C3   11 d         -13.929 207.389 113.637  0.00  0.00     0.043 A 
ATOM      4  C4   11 d         -13.894 207.104 112.267  0.00  0.00     0.030 A 
ATOM      5  C5   11 d         -12.675 206.663 111.712  0.00  0.00     0.002 A 
ATOM      6  C6   11 d         -11.527 206.524 112.523  0.00  0.00     0.001 A 
ATOM      7  C7   11 d         -11.585 206.816 113.901  0.00  0.00     0.014 A 
ATOM      8  N1   11 d         -14.946 207.849 114.388  0.00  0.00    -0.364 N 
ATOM      9  C8   11 d         -14.504 207.995 115.660  0.00  0.00     0.102 A 
ATOM     10  H5   11 d         -15.915 208.063 114.047  0.00  0.00     0.165 HD
ENDROOT
BRANCH   1  11
ATOM     11  C9   11 d         -12.341 207.630 116.963  0.00  0.00     0.133 C 
ATOM     12  N2   11 d         -12.293 206.726 117.920  0.00  0.00    -0.234 NA
BRANCH  12  13
ATOM     13  C10  11 d         -13.226 205.628 117.987  0.00  0.00     0.192 A 
ATOM     14  N3   11 d         -13.452 204.675 117.049  0.00  0.00    -0.235 NA
ATOM     15  C11  11 d         -14.423 203.820 117.467  0.00  0.00     0.127 A 
ATOM     16  C12  11 d         -14.900 204.186 118.719  0.00  0.00     0.072 A 
ATOM     17  S1   11 d         -14.150 205.405 119.144  0.00  0.00    -0.061 SA
ENDBRANCH  12  13
ENDBRANCH   1  11
TORSDOF 2
ENDMDL
MODEL 14
REMARK VINA RESULT:      -5.4      2.847      4.374
REMARK  2 active torsions:
REMARK  status: ('A' for Active; 'I' for Inactive)
REMARK    1  A    between atoms: C1_1  and  C9_10 
REMARK    2  A    between atoms: N2_11  and  C10_12 
ROOT
ATOM      1  C1   11 d         -13.367 205.624 117.226  0.00  0.00     0.009 A 
ATOM      2  C2   11 d         -13.740 206.430 116.155  0.00  0.00     0.004 A 
ATOM      3  C3   11 d         -14.770 205.789 115.490  0.00  0.00     0.043 A 
ATOM      4  C4   11 d         -15.368 206.347 114.354  0.00  0.00     0.030 A 
ATOM      5  C5   11 d         -14.902 207.600 113.906  0.00  0.00     0.002 A 
ATOM      6  C6   11 d         -13.865 208.267 114.595  0.00  0.00     0.001 A 
ATOM      7  C7   11 d         -13.276 207.686 115.737  0.00  0.00     0.014 A 
ATOM      8  N1   11 d         -15.054 204.638 116.126  0.00  0.00    -0.364 N 
ATOM      9  C8   11 d         -14.226 204.526 117.192  0.00  0.00     0.102 A 
ATOM     10  H5   11 d         -15.793 203.947 115.848  0.00  0.00     0.165 HD
ENDROOT
BRANCH   1  11
ATOM     11  C9   11 d         -12.333 205.859 118.264  0.00  0.00     0.133 C 
ATOM     12  N2   11 d         -12.521 205.983 119.562  0.00  0.00    -0.234 NA
BRANCH  12  13
ATOM     13  C10  11 d         -13.837 206.100 120.141  0.00  0.00     0.192 A 
ATOM     14  N3   11 d         -14.639 207.193 120.157  0.00  0.00    -0.235 NA
ATOM     15  C11  11 d         -15.797 206.920 120.816  0.00  0.00     0.127 A 
ATOM     16  C12  11 d         -15.804 205.614 121.285  0.00  0.00     0.072 A 
ATOM     17  S1   11 d         -14.512 204.986 120.879  0.00  0.00    -0.061 SA
ENDBRANCH  12  13
ENDBRANCH   1  11
TORSDOF 2
ENDMDL
MODEL 15
REMARK VINA RESULT:      -5.3      5.351      8.162
REMARK  2 active torsions:
REMARK  status: ('A' for Active; 'I' for Inactive)
REMARK    1  A    between atoms: C1_1  and  C9_10 
REMARK    2  A    between atoms: N2_11  and  C10_12 
ROOT
ATOM      1  C1   11 d         -16.837 205.354 121.397  0.00  0.00     0.009 A 
ATOM      2  C2   11 d         -18.051 204.725 121.138  0.00  0.00     0.004 A 
ATOM      3  C3   11 d         -18.943 205.698 120.725  0.00  0.00     0.043 A 
ATOM      4  C4   11 d         -20.266 205.385 120.388  0.00  0.00     0.030 A 
ATOM      5  C5   11 d         -20.669 204.037 120.466  0.00  0.00     0.002 A 
ATOM      6  C6   11 d         -19.754 203.037 120.868  0.00  0.00     0.001 A 
ATOM      7  C7   11 d         -18.427 203.376 121.203  0.00  0.00     0.014 A 
ATOM      8  N1   11 d         -18.315 206.888 120.700  0.00  0.00    -0.364 N 
ATOM      9  C8   11 d         -17.031 206.699 121.089  0.00  0.00     0.102 A 
ATOM     10  H5   11 d         -18.743 207.805 120.423  0.00  0.00     0.165 HD
ENDROOT
BRANCH   1  11
ATOM     11  C9   11 d         -15.549 204.763 121.840  0.00  0.00     0.133 C 
ATOM     12  N2   11 d         -14.557 204.353 121.077  0.00  0.00    -0.234 NA
BRANCH  12  13
ATOM     13  C10  11 d         -14.681 204.247 119.645  0.00  0.00     0.192 A 
ATOM     14  N3   11 d         -15.316 203.278 118.938  0.00  0.00    -0.235 NA
ATOM     15  C11  11 d         -15.198 203.512 117.604  0.00  0.00     0.127 A 
ATOM     16  C12  11 d         -14.453 204.659 117.365  0.00  0.00     0.072 A 
ATOM     17  S1   11 d         -14.057 205.219 118.692  0.00  0.00    -0.061 SA
ENDBRANCH  12  13
ENDBRANCH   1  11
TORSDOF 2
ENDMDL
MODEL 16
REMARK VINA RESULT:      -5.2     15.236     16.802
REMARK  2 active torsions:
REMARK  status: ('A' for Active; 'I' for Inactive)
REMARK    1  A    between atoms: C1_1  and  C9_10 
REMARK    2  A    between atoms: N2_11  and  C10_12 
ROOT
ATOM      1  C1   11 d          -8.738 216.336 125.050  0.00  0.00     0.009 A 
ATOM      2  C2   11 d          -9.601 215.542 125.798  0.00  0.00     0.004 A 
ATOM      3  C3   11 d         -10.886 215.782 125.345  0.00  0.00     0.043 A 
ATOM      4  C4   11 d         -11.994 215.132 125.902  0.00  0.00     0.030 A 
ATOM      5  C5   11 d         -11.766 214.204 126.939  0.00  0.00     0.002 A 
ATOM      6  C6   11 d         -10.453 213.940 127.390  0.00  0.00     0.001 A 
ATOM      7  C7   11 d          -9.353 214.607 126.814  0.00  0.00     0.014 A 
ATOM      8  N1   11 d         -10.836 216.673 124.338  0.00  0.00    -0.364 N 
ATOM      9  C8   11 d          -9.541 217.010 124.131  0.00  0.00     0.102 A 
ATOM     10  H5   11 d         -11.659 217.040 123.800  0.00  0.00     0.165 HD
ENDROOT
BRANCH   1  11
ATOM     11  C9   11 d          -7.259 216.437 125.118  0.00  0.00     0.133 C 
ATOM     12  N2   11 d          -6.545 217.512 125.388  0.00  0.00    -0.234 NA
BRANCH  12  13
ATOM     13  C10  11 d          -7.134 218.826 125.467  0.00  0.00     0.192 A 
ATOM     14  N3   11 d          -7.833 219.359 126.500  0.00  0.00    -0.235 NA
ATOM     15  C11  11 d          -8.246 220.617 126.192  0.00  0.00     0.127 A 
ATOM     16  C12  11 d          -7.844 220.972 124.911  0.00  0.00     0.072 A 
ATOM     17  S1   11 d          -7.089 219.815 124.343  0.00  0.00    -0.061 SA
ENDBRANCH  12  13
ENDBRANCH   1  11
TORSDOF 2
ENDMDL
MODEL 17
REMARK VINA RESULT:      -5.1      8.645      9.943
REMARK  2 active torsions:
REMARK  status: ('A' for Active; 'I' for Inactive)
REMARK    1  A    between atoms: C1_1  and  C9_10 
REMARK    2  A    between atoms: N2_11  and  C10_12 
ROOT
ATOM      1  C1   11 d         -18.462 205.742 122.415  0.00  0.00     0.009 A 
ATOM      2  C2   11 d         -19.315 204.645 122.466  0.00  0.00     0.004 A 
ATOM      3  C3   11 d         -19.666 204.330 121.165  0.00  0.00     0.043 A 
ATOM      4  C4   11 d         -20.525 203.264 120.875  0.00  0.00     0.030 A 
ATOM      5  C5   11 d         -21.020 202.499 121.951  0.00  0.00     0.002 A 
ATOM      6  C6   11 d         -20.647 202.804 123.279  0.00  0.00     0.001 A 
ATOM      7  C7   11 d         -19.781 203.883 123.548  0.00  0.00     0.014 A 
ATOM      8  N1   11 d         -19.043 205.177 120.325  0.00  0.00    -0.364 N 
ATOM      9  C8   11 d         -18.294 206.032 121.062  0.00  0.00     0.102 A 
ATOM     10  H5   11 d         -19.119 205.174 119.279  0.00  0.00     0.165 HD
ENDROOT
BRANCH   1  11
ATOM     11  C9   11 d         -17.783 206.456 123.526  0.00  0.00     0.133 C 
ATOM     12  N2   11 d         -16.536 206.306 123.924  0.00  0.00    -0.234 NA
BRANCH  12  13
ATOM     13  C10  11 d         -15.693 205.245 123.430  0.00  0.00     0.192 A 
ATOM     14  N3   11 d         -15.705 203.940 123.799  0.00  0.00    -0.235 NA
ATOM     15  C11  11 d         -14.745 203.250 123.126  0.00  0.00     0.127 A 
ATOM     16  C12  11 d         -14.034 204.089 122.278  0.00  0.00     0.072 A 
ATOM     17  S1   11 d         -14.605 205.461 122.425  0.00  0.00    -0.061 SA
ENDBRANCH  12  13
ENDBRANCH   1  11
TORSDOF 2
ENDMDL
MODEL 18
REMARK VINA RESULT:      -5.0      2.515      5.259
REMARK  2 active torsions:
REMARK  status: ('A' for Active; 'I' for Inactive)
REMARK    1  A    between atoms: C1_1  and  C9_10 
REMARK    2  A    between atoms: N2_11  and  C10_12 
ROOT
ATOM      1  C1   11 d         -14.000 206.075 115.019  0.00  0.00     0.009 A 
ATOM      2  C2   11 d         -13.320 206.672 116.076  0.00  0.00     0.004 A 
ATOM      3  C3   11 d         -11.990 206.776 115.709  0.00  0.00     0.043 A 
ATOM      4  C4   11 d         -11.035 207.338 116.565  0.00  0.00     0.030 A 
ATOM      5  C5   11 d         -11.467 207.814 117.820  0.00  0.00     0.002 A 
ATOM      6  C6   11 d         -12.828 207.729 118.189  0.00  0.00     0.001 A 
ATOM      7  C7   11 d         -13.772 207.159 117.311  0.00  0.00     0.014 A 
ATOM      8  N1   11 d         -11.838 206.288 114.464  0.00  0.00    -0.364 N 
ATOM      9  C8   11 d         -13.049 205.872 114.021  0.00  0.00     0.102 A 
ATOM     10  H5   11 d         -10.939 206.241 113.927  0.00  0.00     0.165 HD
ENDROOT
BRANCH   1  11
ATOM     11  C9   11 d         -15.445 205.760 114.891  0.00  0.00     0.133 C 
ATOM     12  N2   11 d         -16.152 205.705 113.781  0.00  0.00    -0.234 NA
BRANCH  12  13
ATOM     13  C10  11 d         -15.629 206.150 112.513  0.00  0.00     0.192 A 
ATOM     14  N3   11 d         -15.498 207.427 112.074  0.00  0.00    -0.235 NA
ATOM     15  C11  11 d         -14.984 207.444 110.815  0.00  0.00     0.127 A 
ATOM     16  C12  11 d         -14.764 206.154 110.352  0.00  0.00     0.072 A 
ATOM     17  S1   11 d         -15.179 205.213 111.435  0.00  0.00    -0.061 SA
ENDBRANCH  12  13
ENDBRANCH   1  11
TORSDOF 2
ENDMDL
MODEL 19
REMARK VINA RESULT:      -4.9     15.201     17.094
REMARK  2 active torsions:
REMARK  status: ('A' for Active; 'I' for Inactive)
REMARK    1  A    between atoms: C1_1  and  C9_10 
REMARK    2  A    between atoms: N2_11  and  C10_12 
ROOT
ATOM      1  C1   11 d          -8.051 216.898 124.690  0.00  0.00     0.009 A 
ATOM      2  C2   11 d          -9.281 216.284 124.905  0.00  0.00     0.004 A 
ATOM      3  C3   11 d          -9.170 215.522 126.054  0.00  0.00     0.043 A 
ATOM      4  C4   11 d         -10.246 214.772 126.543  0.00  0.00     0.030 A 
ATOM      5  C5   11 d         -11.465 214.822 125.837  0.00  0.00     0.002 A 
ATOM      6  C6   11 d         -11.588 215.616 124.675  0.00  0.00     0.001 A 
ATOM      7  C7   11 d         -10.491 216.363 124.200  0.00  0.00     0.014 A 
ATOM      8  N1   11 d          -7.931 215.666 126.559  0.00  0.00    -0.364 N 
ATOM      9  C8   11 d          -7.240 216.510 125.755  0.00  0.00     0.102 A 
ATOM     10  H5   11 d          -7.562 215.208 127.427  0.00  0.00     0.165 HD
ENDROOT
BRANCH   1  11
ATOM     11  C9   11 d          -7.645 217.836 123.613  0.00  0.00     0.133 C 
ATOM     12  N2   11 d          -7.123 219.037 123.758  0.00  0.00    -0.234 NA
BRANCH  12  13
ATOM     13  C10  11 d          -7.052 219.695 125.039  0.00  0.00     0.192 A 
ATOM     14  N3   11 d          -8.080 220.196 125.770  0.00  0.00    -0.235 NA
ATOM     15  C11  11 d          -7.614 220.762 126.915  0.00  0.00     0.127 A 
ATOM     16  C12  11 d          -6.230 220.673 126.985  0.00  0.00     0.072 A 
ATOM     17  S1   11 d          -5.765 219.969 125.753  0.00  0.00    -0.061 SA
ENDBRANCH  12  13
ENDBRANCH   1  11
TORSDOF 2
ENDMDL
MODEL 20
REMARK VINA RESULT:      -4.8      8.683     10.300
REMARK  2 active torsions:
REMARK  status: ('A' for Active; 'I' for Inactive)
REMARK    1  A    between atoms: C1_1  and  C9_10 
REMARK    2  A    between atoms: N2_11  and  C10_12 
ROOT
ATOM      1  C1   11 d         -18.810 205.149 123.683  0.00  0.00     0.009 A 
ATOM      2  C2   11 d         -19.409 204.764 122.488  0.00  0.00     0.004 A 
ATOM      3  C3   11 d         -20.128 203.608 122.737  0.00  0.00     0.043 A 
ATOM      4  C4   11 d         -20.850 202.962 121.726  0.00  0.00     0.030 A 
ATOM      5  C5   11 d         -20.840 203.530 120.436  0.00  0.00     0.002 A 
ATOM      6  C6   11 d         -20.123 204.722 120.183  0.00  0.00     0.001 A 
ATOM      7  C7   11 d         -19.402 205.355 121.216  0.00  0.00     0.014 A 
ATOM      8  N1   11 d         -20.010 203.289 124.038  0.00  0.00    -0.364 N 
ATOM      9  C8   11 d         -19.228 204.221 124.635  0.00  0.00     0.102 A 
ATOM     10  H5   11 d         -20.451 202.464 124.513  0.00  0.00     0.165 HD
ENDROOT
BRANCH   1  11
ATOM     11  C9   11 d         -17.955 206.329 123.967  0.00  0.00     0.133 C 
ATOM     12  N2   11 d         -16.696 206.502 123.622  0.00  0.00    -0.234 NA
BRANCH  12  13
ATOM     13  C10  11 d         -15.898 205.437 123.066  0.00  0.00     0.192 A 
ATOM     14  N3   11 d         -15.351 204.383 123.721  0.00  0.00    -0.235 NA
ATOM     15  C11  11 d         -14.648 203.602 122.858  0.00  0.00     0.127 A 
ATOM     16  C12  11 d         -14.687 204.125 121.572  0.00  0.00     0.072 A 
ATOM     17  S1   11 d         -15.508 205.372 121.622  0.00  0.00    -0.061 SA
ENDBRANCH  12  13
ENDBRANCH   1  11
TORSDOF 2
ENDMDL
