MODEL 1
REMARK VINA RESULT:      -9.0      0.000      0.000
REMARK  4 active torsions:
REMARK  status: ('A' for Active; 'I' for Inactive)
REMARK    1  A    between atoms: C2_2  and  C14_19 
REMARK    2  A    between atoms: C8_10  and  O1_11 
REMARK    3  A    between atoms: O1_11  and  C9_12 
REMARK    4  A    between atoms: C14_19  and  C15_20 
ROOT
ATOM      1  C1   11 d          -6.904 209.050 116.858  0.00  0.00     0.287 A 
ATOM      2  C2   11 d          -5.781 209.893 116.656  0.00  0.00     0.079 A 
ATOM      3  S1   11 d          -5.838 210.373 115.213  0.00  0.00    -0.044 SA
ATOM      4  C3   11 d          -7.082 209.690 114.756  0.00  0.00     0.200 A 
ATOM      5  N1   11 d          -7.784 209.598 113.626  0.00  0.00    -0.200 NA
ATOM      6  C4   11 d          -8.803 208.757 113.981  0.00  0.00     0.182 A 
ATOM      7  C5   11 d          -9.855 208.281 113.055  0.00  0.00     0.014 A 
ATOM      8  C6   11 d         -10.964 207.548 113.528  0.00  0.00     0.018 A 
ATOM      9  C7   11 d         -11.937 207.074 112.633  0.00  0.00     0.038 A 
ATOM     10  C8   11 d         -11.819 207.331 111.260  0.00  0.00     0.069 A 
ATOM     11  C12  11 d         -10.707 208.036 110.778  0.00  0.00     0.038 A 
ATOM     12  C13  11 d          -9.742 208.524 111.671  0.00  0.00     0.018 A 
ATOM     13  N2   11 d          -8.690 208.386 115.296  0.00  0.00    -0.141 NA
ATOM     14  N3   11 d          -7.619 208.983 115.711  0.00  0.00    -0.169 N 
ATOM     15  O2   11 d          -7.172 208.402 117.899  0.00  0.00    -0.265 OA
ENDROOT
BRANCH   2  16
ATOM     16  C14  11 d          -4.777 210.241 117.495  0.00  0.00     0.036 C 
BRANCH  16  17
ATOM     17  C15  11 d          -4.915 210.606 118.927  0.00  0.00    -0.033 A 
ATOM     18  C16  11 d          -4.301 209.873 119.964  0.00  0.00     0.037 A 
ATOM     19  C17  11 d          -4.484 210.246 121.306  0.00  0.00     0.056 A 
ATOM     20  C18  11 d          -5.300 211.349 121.626  0.00  0.00     0.055 A 
ATOM     21 Cl2   11 d          -3.677 209.287 122.577  0.00  0.00    -0.083 Cl
ATOM     22 Cl1   11 d          -5.564 211.866 123.311  0.00  0.00    -0.083 Cl
ATOM     23  C19  11 d          -5.933 212.063 120.598  0.00  0.00     0.026 A 
ATOM     24  C20  11 d          -5.750 211.691 119.259  0.00  0.00     0.013 A 
ENDBRANCH  16  17
ENDBRANCH   2  16
BRANCH  10  25
ATOM     25  O1   11 d         -12.739 206.751 110.347  0.00  0.00    -0.347 OA
BRANCH  25  26
ATOM     26  C9   11 d         -14.057 206.586 110.944  0.00  0.00     0.120 C 
ATOM     27  C10  11 d         -14.420 205.100 110.938  0.00  0.00     0.040 C 
ATOM     28  C11  11 d         -15.046 207.397 110.105  0.00  0.00     0.040 C 
ENDBRANCH  25  26
ENDBRANCH  10  25
TORSDOF 4
ENDMDL
MODEL 2
REMARK VINA RESULT:      -8.8      4.424      5.284
REMARK  4 active torsions:
REMARK  status: ('A' for Active; 'I' for Inactive)
REMARK    1  A    between atoms: C2_2  and  C14_19 
REMARK    2  A    between atoms: C8_10  and  O1_11 
REMARK    3  A    between atoms: O1_11  and  C9_12 
REMARK    4  A    between atoms: C14_19  and  C15_20 
ROOT
ATOM      1  C1   11 d          -6.746 208.673 112.863  0.00  0.00     0.287 A 
ATOM      2  C2   11 d          -6.036 209.431 113.829  0.00  0.00     0.079 A 
ATOM      3  S1   11 d          -7.031 209.813 114.915  0.00  0.00    -0.044 SA
ATOM      4  C3   11 d          -8.265 209.167 114.382  0.00  0.00     0.200 A 
ATOM      5  N1   11 d          -9.544 209.062 114.743  0.00  0.00    -0.200 NA
ATOM      6  C4   11 d         -10.079 208.329 113.720  0.00  0.00     0.182 A 
ATOM      7  C5   11 d         -11.511 207.970 113.609  0.00  0.00     0.014 A 
ATOM      8  C6   11 d         -11.962 207.076 112.614  0.00  0.00     0.018 A 
ATOM      9  C7   11 d         -13.328 206.771 112.499  0.00  0.00     0.038 A 
ATOM     10  C8   11 d         -14.257 207.347 113.378  0.00  0.00     0.069 A 
ATOM     11  C12  11 d         -13.821 208.256 114.352  0.00  0.00     0.038 A 
ATOM     12  C13  11 d         -12.456 208.550 114.479  0.00  0.00     0.018 A 
ATOM     13  N2   11 d          -9.118 208.012 112.796  0.00  0.00    -0.141 NA
ATOM     14  N3   11 d          -8.036 208.555 113.253  0.00  0.00    -0.169 N 
ATOM     15  O2   11 d          -6.290 208.235 111.778  0.00  0.00    -0.265 OA
ENDROOT
BRANCH   2  16
ATOM     16  C14  11 d          -4.742 209.828 113.864  0.00  0.00     0.036 C 
BRANCH  16  17
ATOM     17  C15  11 d          -3.561 208.957 114.092  0.00  0.00    -0.033 A 
ATOM     18  C16  11 d          -2.573 208.737 113.110  0.00  0.00     0.037 A 
ATOM     19  C17  11 d          -1.488 207.883 113.369  0.00  0.00     0.056 A 
ATOM     20  C18  11 d          -1.390 207.225 114.610  0.00  0.00     0.055 A 
ATOM     21 Cl2   11 d          -0.264 207.647 112.092  0.00  0.00    -0.083 Cl
ATOM     22 Cl1   11 d          -0.034 206.133 114.990  0.00  0.00    -0.083 Cl
ATOM     23  C19  11 d          -2.386 207.422 115.579  0.00  0.00     0.026 A 
ATOM     24  C20  11 d          -3.468 208.274 115.320  0.00  0.00     0.013 A 
ENDBRANCH  16  17
ENDBRANCH   2  16
BRANCH  10  25
ATOM     25  O1   11 d         -15.647 207.129 113.185  0.00  0.00    -0.347 OA
BRANCH  25  26
ATOM     26  C9   11 d         -15.907 206.350 111.982  0.00  0.00     0.120 C 
ATOM     27  C10  11 d         -15.873 207.284 110.771  0.00  0.00     0.040 C 
ATOM     28  C11  11 d         -17.285 205.706 112.142  0.00  0.00     0.040 C 
ENDBRANCH  25  26
ENDBRANCH  10  25
TORSDOF 4
ENDMDL
MODEL 3
REMARK VINA RESULT:      -8.6      6.218      8.118
REMARK  4 active torsions:
REMARK  status: ('A' for Active; 'I' for Inactive)
REMARK    1  A    between atoms: C2_2  and  C14_19 
REMARK    2  A    between atoms: C8_10  and  O1_11 
REMARK    3  A    between atoms: O1_11  and  C9_12 
REMARK    4  A    between atoms: C14_19  and  C15_20 
ROOT
ATOM      1  C1   11 d         -11.645 206.818 113.980  0.00  0.00     0.287 A 
ATOM      2  C2   11 d         -10.744 207.893 114.193  0.00  0.00     0.079 A 
ATOM      3  S1   11 d         -10.747 208.188 115.685  0.00  0.00    -0.044 SA
ATOM      4  C3   11 d         -11.720 207.160 116.156  0.00  0.00     0.200 A 
ATOM      5  N1   11 d         -12.263 206.791 117.317  0.00  0.00    -0.200 NA
ATOM      6  C4   11 d         -13.098 205.775 116.940  0.00  0.00     0.182 A 
ATOM      7  C5   11 d         -13.991 205.041 117.865  0.00  0.00     0.014 A 
ATOM      8  C6   11 d         -14.703 203.900 117.438  0.00  0.00     0.018 A 
ATOM      9  C7   11 d         -15.573 203.235 118.317  0.00  0.00     0.038 A 
ATOM     10  C8   11 d         -15.738 203.695 119.631  0.00  0.00     0.069 A 
ATOM     11  C12  11 d         -15.055 204.843 120.056  0.00  0.00     0.038 A 
ATOM     12  C13  11 d         -14.173 205.500 119.186  0.00  0.00     0.018 A 
ATOM     13  N2   11 d         -13.024 205.561 115.589  0.00  0.00    -0.141 NA
ATOM     14  N3   11 d         -12.171 206.439 115.167  0.00  0.00    -0.169 N 
ATOM     15  O2   11 d         -11.973 206.330 112.871  0.00  0.00    -0.265 OA
ENDROOT
BRANCH   2  16
ATOM     16  C14  11 d         -10.005 208.612 113.316  0.00  0.00     0.036 C 
BRANCH  16  17
ATOM     17  C15  11 d          -8.545 208.872 113.402  0.00  0.00    -0.033 A 
ATOM     18  C16  11 d          -7.975 209.704 114.388  0.00  0.00     0.037 A 
ATOM     19  C17  11 d          -6.590 209.937 114.410  0.00  0.00     0.056 A 
ATOM     20  C18  11 d          -5.761 209.350 113.434  0.00  0.00     0.055 A 
ATOM     21 Cl2   11 d          -5.922 210.993 115.684  0.00  0.00    -0.083 Cl
ATOM     22 Cl1   11 d          -3.998 209.611 113.418  0.00  0.00    -0.083 Cl
ATOM     23  C19  11 d          -6.330 208.543 112.437  0.00  0.00     0.026 A 
ATOM     24  C20  11 d          -7.712 208.311 112.416  0.00  0.00     0.013 A 
ENDBRANCH  16  17
ENDBRANCH   2  16
BRANCH  10  25
ATOM     25  O1   11 d         -16.705 203.092 120.479  0.00  0.00    -0.347 OA
BRANCH  25  26
ATOM     26  C9   11 d         -17.832 203.980 120.725  0.00  0.00     0.120 C 
ATOM     27  C10  11 d         -18.283 203.816 122.177  0.00  0.00     0.040 C 
ATOM     28  C11  11 d         -18.947 203.586 119.755  0.00  0.00     0.040 C 
ENDBRANCH  25  26
ENDBRANCH  10  25
TORSDOF 4
ENDMDL
MODEL 4
REMARK VINA RESULT:      -8.2      9.055     11.423
REMARK  4 active torsions:
REMARK  status: ('A' for Active; 'I' for Inactive)
REMARK    1  A    between atoms: C2_2  and  C14_19 
REMARK    2  A    between atoms: C8_10  and  O1_11 
REMARK    3  A    between atoms: O1_11  and  C9_12 
REMARK    4  A    between atoms: C14_19  and  C15_20 
ROOT
ATOM      1  C1   11 d         -12.586 205.348 116.982  0.00  0.00     0.287 A 
ATOM      2  C2   11 d         -12.348 206.588 116.336  0.00  0.00     0.079 A 
ATOM      3  S1   11 d         -13.069 207.657 117.145  0.00  0.00    -0.044 SA
ATOM      4  C3   11 d         -13.659 206.816 118.226  0.00  0.00     0.200 A 
ATOM      5  N1   11 d         -14.432 207.007 119.296  0.00  0.00    -0.200 NA
ATOM      6  C4   11 d         -14.573 205.737 119.786  0.00  0.00     0.182 A 
ATOM      7  C5   11 d         -15.398 205.382 120.963  0.00  0.00     0.014 A 
ATOM      8  C6   11 d         -15.367 204.081 121.507  0.00  0.00     0.018 A 
ATOM      9  C7   11 d         -16.181 203.750 122.603  0.00  0.00     0.038 A 
ATOM     10  C8   11 d         -17.027 204.712 123.172  0.00  0.00     0.069 A 
ATOM     11  C12  11 d         -17.083 206.000 122.621  0.00  0.00     0.038 A 
ATOM     12  C13  11 d         -16.261 206.338 121.537  0.00  0.00     0.018 A 
ATOM     13  N2   11 d         -13.883 204.840 119.014  0.00  0.00    -0.141 NA
ATOM     14  N3   11 d         -13.352 205.558 118.077  0.00  0.00    -0.169 N 
ATOM     15  O2   11 d         -12.218 204.216 116.580  0.00  0.00    -0.265 OA
ENDROOT
BRANCH   2  16
ATOM     16  C14  11 d         -11.665 206.878 115.204  0.00  0.00     0.036 C 
BRANCH  16  17
ATOM     17  C15  11 d         -12.201 206.837 113.820  0.00  0.00    -0.033 A 
ATOM     18  C16  11 d         -11.426 207.176 112.691  0.00  0.00     0.037 A 
ATOM     19  C17  11 d         -11.990 207.145 111.404  0.00  0.00     0.056 A 
ATOM     20  C18  11 d         -13.342 206.790 111.236  0.00  0.00     0.055 A 
ATOM     21 Cl2   11 d         -10.961 207.576 110.011  0.00  0.00    -0.083 Cl
ATOM     22 Cl1   11 d         -14.105 206.733 109.627  0.00  0.00    -0.083 Cl
ATOM     23  C19  11 d         -14.122 206.479 112.360  0.00  0.00     0.026 A 
ATOM     24  C20  11 d         -13.559 206.509 113.643  0.00  0.00     0.013 A 
ENDBRANCH  16  17
ENDBRANCH   2  16
BRANCH  10  25
ATOM     25  O1   11 d         -17.932 204.343 124.202  0.00  0.00    -0.347 OA
BRANCH  25  26
ATOM     26  C9   11 d         -19.269 204.863 123.954  0.00  0.00     0.120 C 
ATOM     27  C10  11 d         -19.819 205.454 125.254  0.00  0.00     0.040 C 
ATOM     28  C11  11 d         -20.133 203.698 123.471  0.00  0.00     0.040 C 
ENDBRANCH  25  26
ENDBRANCH  10  25
TORSDOF 4
ENDMDL
MODEL 5
REMARK VINA RESULT:      -8.1      1.617      2.453
REMARK  4 active torsions:
REMARK  status: ('A' for Active; 'I' for Inactive)
REMARK    1  A    between atoms: C2_2  and  C14_19 
REMARK    2  A    between atoms: C8_10  and  O1_11 
REMARK    3  A    between atoms: O1_11  and  C9_12 
REMARK    4  A    between atoms: C14_19  and  C15_20 
ROOT
ATOM      1  C1   11 d          -6.364 209.280 114.256  0.00  0.00     0.287 A 
ATOM      2  C2   11 d          -6.073 209.502 115.627  0.00  0.00     0.079 A 
ATOM      3  S1   11 d          -7.335 209.171 116.409  0.00  0.00    -0.044 SA
ATOM      4  C3   11 d          -8.240 208.771 115.294  0.00  0.00     0.200 A 
ATOM      5  N1   11 d          -9.505 208.367 115.162  0.00  0.00    -0.200 NA
ATOM      6  C4   11 d          -9.624 208.214 113.807  0.00  0.00     0.182 A 
ATOM      7  C5   11 d         -10.873 207.821 113.117  0.00  0.00     0.014 A 
ATOM      8  C6   11 d         -10.881 207.525 111.738  0.00  0.00     0.018 A 
ATOM      9  C7   11 d         -12.080 207.187 111.090  0.00  0.00     0.038 A 
ATOM     10  C8   11 d         -13.282 207.134 111.810  0.00  0.00     0.069 A 
ATOM     11  C12  11 d         -13.288 207.453 113.175  0.00  0.00     0.038 A 
ATOM     12  C13  11 d         -12.090 207.775 113.828  0.00  0.00     0.018 A 
ATOM     13  N2   11 d          -8.443 208.513 113.179  0.00  0.00    -0.141 NA
ATOM     14  N3   11 d          -7.641 208.850 114.138  0.00  0.00    -0.169 N 
ATOM     15  O2   11 d          -5.600 209.509 113.286  0.00  0.00    -0.265 OA
ENDROOT
BRANCH   2  16
ATOM     16  C14  11 d          -4.947 209.952 116.229  0.00  0.00     0.036 C 
BRANCH  16  17
ATOM     17  C15  11 d          -4.707 210.037 117.691  0.00  0.00    -0.033 A 
ATOM     18  C16  11 d          -5.227 211.076 118.491  0.00  0.00     0.037 A 
ATOM     19  C17  11 d          -4.949 211.124 119.867  0.00  0.00     0.056 A 
ATOM     20  C18  11 d          -4.131 210.140 120.455  0.00  0.00     0.055 A 
ATOM     21 Cl2   11 d          -5.640 212.458 120.832  0.00  0.00    -0.083 Cl
ATOM     22 Cl1   11 d          -3.749 210.153 122.196  0.00  0.00    -0.083 Cl
ATOM     23  C19  11 d          -3.591 209.121 119.657  0.00  0.00     0.026 A 
ATOM     24  C20  11 d          -3.870 209.073 118.284  0.00  0.00     0.013 A 
ENDBRANCH  16  17
ENDBRANCH   2  16
BRANCH  10  25
ATOM     25  O1   11 d         -14.508 206.908 111.130  0.00  0.00    -0.347 OA
BRANCH  25  26
ATOM     26  C9   11 d         -15.336 205.933 111.825  0.00  0.00     0.120 C 
ATOM     27  C10  11 d         -14.900 204.527 111.409  0.00  0.00     0.040 C 
ATOM     28  C11  11 d         -16.789 206.198 111.427  0.00  0.00     0.040 C 
ENDBRANCH  25  26
ENDBRANCH  10  25
TORSDOF 4
ENDMDL
MODEL 6
REMARK VINA RESULT:      -8.1      5.702     11.100
REMARK  4 active torsions:
REMARK  status: ('A' for Active; 'I' for Inactive)
REMARK    1  A    between atoms: C2_2  and  C14_19 
REMARK    2  A    between atoms: C8_10  and  O1_11 
REMARK    3  A    between atoms: O1_11  and  C9_12 
REMARK    4  A    between atoms: C14_19  and  C15_20 
ROOT
ATOM      1  C1   11 d         -12.930 207.373 117.631  0.00  0.00     0.287 A 
ATOM      2  C2   11 d         -12.997 206.540 116.485  0.00  0.00     0.079 A 
ATOM      3  S1   11 d         -11.565 206.228 116.077  0.00  0.00    -0.044 SA
ATOM      4  C3   11 d         -10.820 206.978 117.129  0.00  0.00     0.200 A 
ATOM      5  N1   11 d          -9.545 207.210 117.443  0.00  0.00    -0.200 NA
ATOM      6  C4   11 d          -9.656 208.022 118.539  0.00  0.00     0.182 A 
ATOM      7  C5   11 d          -8.506 208.617 119.257  0.00  0.00     0.014 A 
ATOM      8  C6   11 d          -8.688 209.311 120.473  0.00  0.00     0.018 A 
ATOM      9  C7   11 d          -7.593 209.899 121.125  0.00  0.00     0.038 A 
ATOM     10  C8   11 d          -6.305 209.797 120.578  0.00  0.00     0.069 A 
ATOM     11  C12  11 d          -6.120 209.133 119.357  0.00  0.00     0.038 A 
ATOM     12  C13  11 d          -7.209 208.531 118.712  0.00  0.00     0.018 A 
ATOM     13  N2   11 d         -10.972 208.240 118.851  0.00  0.00    -0.141 NA
ATOM     14  N3   11 d         -11.632 207.582 117.952  0.00  0.00    -0.169 N 
ATOM     15  O2   11 d         -13.901 207.903 118.224  0.00  0.00    -0.265 OA
ENDROOT
BRANCH   2  16
ATOM     16  C14  11 d         -14.063 206.082 115.787  0.00  0.00     0.036 C 
BRANCH  16  17
ATOM     17  C15  11 d         -14.397 206.409 114.378  0.00  0.00    -0.033 A 
ATOM     18  C16  11 d         -15.672 206.179 113.822  0.00  0.00     0.037 A 
ATOM     19  C17  11 d         -15.929 206.484 112.475  0.00  0.00     0.056 A 
ATOM     20  C18  11 d         -14.903 207.008 111.664  0.00  0.00     0.055 A 
ATOM     21 Cl2   11 d         -17.563 206.178 111.827  0.00  0.00    -0.083 Cl
ATOM     22 Cl1   11 d         -15.176 207.413 109.950  0.00  0.00    -0.083 Cl
ATOM     23  C19  11 d         -13.627 207.213 112.208  0.00  0.00     0.026 A 
ATOM     24  C20  11 d         -13.372 206.909 113.552  0.00  0.00     0.013 A 
ENDBRANCH  16  17
ENDBRANCH   2  16
BRANCH  10  25
ATOM     25  O1   11 d          -5.222 210.493 121.177  0.00  0.00    -0.347 OA
BRANCH  25  26
ATOM     26  C9   11 d          -5.667 211.704 121.851  0.00  0.00     0.120 C 
ATOM     27  C10  11 d          -5.253 212.916 121.015  0.00  0.00     0.040 C 
ATOM     28  C11  11 d          -5.003 211.733 123.229  0.00  0.00     0.040 C 
ENDBRANCH  25  26
ENDBRANCH  10  25
TORSDOF 4
ENDMDL
MODEL 7
REMARK VINA RESULT:      -8.1      2.629      3.792
REMARK  4 active torsions:
REMARK  status: ('A' for Active; 'I' for Inactive)
REMARK    1  A    between atoms: C2_2  and  C14_19 
REMARK    2  A    between atoms: C8_10  and  O1_11 
REMARK    3  A    between atoms: O1_11  and  C9_12 
REMARK    4  A    between atoms: C14_19  and  C15_20 
ROOT
ATOM      1  C1   11 d          -7.725 209.249 113.429  0.00  0.00     0.287 A 
ATOM      2  C2   11 d          -7.349 209.687 114.724  0.00  0.00     0.079 A 
ATOM      3  S1   11 d          -8.446 209.246 115.680  0.00  0.00    -0.044 SA
ATOM      4  C3   11 d          -9.367 208.560 114.728  0.00  0.00     0.200 A 
ATOM      5  N1   11 d         -10.542 207.933 114.790  0.00  0.00    -0.200 NA
ATOM      6  C4   11 d         -10.761 207.592 113.483  0.00  0.00     0.182 A 
ATOM      7  C5   11 d         -11.979 206.908 112.991  0.00  0.00     0.014 A 
ATOM      8  C6   11 d         -12.065 206.444 111.661  0.00  0.00     0.018 A 
ATOM      9  C7   11 d         -13.239 205.828 111.198  0.00  0.00     0.038 A 
ATOM     10  C8   11 d         -14.335 205.660 112.057  0.00  0.00     0.069 A 
ATOM     11  C12  11 d         -14.267 206.142 113.372  0.00  0.00     0.038 A 
ATOM     12  C13  11 d         -13.091 206.744 113.841  0.00  0.00     0.018 A 
ATOM     13  N2   11 d          -9.723 208.009 112.692  0.00  0.00    -0.141 NA
ATOM     14  N3   11 d          -8.907 208.595 113.508  0.00  0.00    -0.169 N 
ATOM     15  O2   11 d          -7.115 209.481 112.356  0.00  0.00    -0.265 OA
ENDROOT
BRANCH   2  16
ATOM     16  C14  11 d          -6.271 210.395 115.138  0.00  0.00     0.036 C 
BRANCH  16  17
ATOM     17  C15  11 d          -5.191 209.909 116.032  0.00  0.00    -0.033 A 
ATOM     18  C16  11 d          -4.179 209.028 115.598  0.00  0.00     0.037 A 
ATOM     19  C17  11 d          -3.193 208.578 116.492  0.00  0.00     0.056 A 
ATOM     20  C18  11 d          -3.221 208.993 117.838  0.00  0.00     0.055 A 
ATOM     21 Cl2   11 d          -1.932 207.470 115.886  0.00  0.00    -0.083 Cl
ATOM     22 Cl1   11 d          -1.994 208.453 119.013  0.00  0.00    -0.083 Cl
ATOM     23  C19  11 d          -4.242 209.848 118.278  0.00  0.00     0.026 A 
ATOM     24  C20  11 d          -5.225 210.297 117.385  0.00  0.00     0.013 A 
ENDBRANCH  16  17
ENDBRANCH   2  16
BRANCH  10  25
ATOM     25  O1   11 d         -15.559 205.144 111.555  0.00  0.00    -0.347 OA
BRANCH  25  26
ATOM     26  C9   11 d         -16.372 206.187 110.944  0.00  0.00     0.120 C 
ATOM     27  C10  11 d         -15.519 207.446 110.779  0.00  0.00     0.040 C 
ATOM     28  C11  11 d         -17.559 206.445 111.873  0.00  0.00     0.040 C 
ENDBRANCH  25  26
ENDBRANCH  10  25
TORSDOF 4
ENDMDL
MODEL 8
REMARK VINA RESULT:      -8.0      2.411      3.065
REMARK  4 active torsions:
REMARK  status: ('A' for Active; 'I' for Inactive)
REMARK    1  A    between atoms: C2_2  and  C14_19 
REMARK    2  A    between atoms: C8_10  and  O1_11 
REMARK    3  A    between atoms: O1_11  and  C9_12 
REMARK    4  A    between atoms: C14_19  and  C15_20 
ROOT
ATOM      1  C1   11 d          -7.682 208.337 117.794  0.00  0.00     0.287 A 
ATOM      2  C2   11 d          -7.803 208.513 119.196  0.00  0.00     0.079 A 
ATOM      3  S1   11 d          -9.288 208.461 119.525  0.00  0.00    -0.044 SA
ATOM      4  C3   11 d          -9.853 208.242 118.163  0.00  0.00     0.200 A 
ATOM      5  N1   11 d         -11.064 208.107 117.619  0.00  0.00    -0.200 NA
ATOM      6  C4   11 d         -10.775 207.963 116.290  0.00  0.00     0.182 A 
ATOM      7  C5   11 d         -11.792 207.828 115.223  0.00  0.00     0.014 A 
ATOM      8  C6   11 d         -11.420 207.520 113.898  0.00  0.00     0.018 A 
ATOM      9  C7   11 d         -12.394 207.429 112.890  0.00  0.00     0.038 A 
ATOM     10  C8   11 d         -13.747 207.636 113.193  0.00  0.00     0.069 A 
ATOM     11  C12  11 d         -14.122 207.969 114.502  0.00  0.00     0.038 A 
ATOM     12  C13  11 d         -13.155 208.045 115.514  0.00  0.00     0.018 A 
ATOM     13  N2   11 d          -9.421 208.003 116.081  0.00  0.00    -0.141 NA
ATOM     14  N3   11 d          -8.915 208.180 117.259  0.00  0.00    -0.169 N 
ATOM     15  O2   11 d          -6.620 208.389 117.126  0.00  0.00    -0.265 OA
ENDROOT
BRANCH   2  16
ATOM     16  C14  11 d          -6.861 208.728 120.144  0.00  0.00     0.036 C 
BRANCH  16  17
ATOM     17  C15  11 d          -5.892 209.853 120.180  0.00  0.00    -0.033 A 
ATOM     18  C16  11 d          -4.539 209.708 119.806  0.00  0.00     0.037 A 
ATOM     19  C17  11 d          -3.658 210.799 119.882  0.00  0.00     0.056 A 
ATOM     20  C18  11 d          -4.118 212.045 120.350  0.00  0.00     0.055 A 
ATOM     21 Cl2   11 d          -1.959 210.559 119.390  0.00  0.00    -0.083 Cl
ATOM     22 Cl1   11 d          -3.042 213.461 120.464  0.00  0.00    -0.083 Cl
ATOM     23  C19  11 d          -5.456 212.185 120.746  0.00  0.00     0.026 A 
ATOM     24  C20  11 d          -6.336 211.096 120.670  0.00  0.00     0.013 A 
ENDBRANCH  16  17
ENDBRANCH   2  16
BRANCH  10  25
ATOM     25  O1   11 d         -14.713 207.660 112.152  0.00  0.00    -0.347 OA
BRANCH  25  26
ATOM     26  C9   11 d         -14.408 206.687 111.113  0.00  0.00     0.120 C 
ATOM     27  C10  11 d         -14.826 207.261 109.758  0.00  0.00     0.040 C 
ATOM     28  C11  11 d         -15.190 205.412 111.435  0.00  0.00     0.040 C 
ENDBRANCH  25  26
ENDBRANCH  10  25
TORSDOF 4
ENDMDL
MODEL 9
REMARK VINA RESULT:      -7.8      9.355     12.026
REMARK  4 active torsions:
REMARK  status: ('A' for Active; 'I' for Inactive)
REMARK    1  A    between atoms: C2_2  and  C14_19 
REMARK    2  A    between atoms: C8_10  and  O1_11 
REMARK    3  A    between atoms: O1_11  and  C9_12 
REMARK    4  A    between atoms: C14_19  and  C15_20 
ROOT
ATOM      1  C1   11 d         -12.425 206.579 117.441  0.00  0.00     0.287 A 
ATOM      2  C2   11 d         -12.654 205.826 116.261  0.00  0.00     0.079 A 
ATOM      3  S1   11 d         -13.673 204.751 116.609  0.00  0.00    -0.044 SA
ATOM      4  C3   11 d         -13.907 205.065 118.047  0.00  0.00     0.200 A 
ATOM      5  N1   11 d         -14.642 204.571 119.045  0.00  0.00    -0.200 NA
ATOM      6  C4   11 d         -14.301 205.385 120.090  0.00  0.00     0.182 A 
ATOM      7  C5   11 d         -14.810 205.229 121.472  0.00  0.00     0.014 A 
ATOM      8  C6   11 d         -14.544 206.200 122.460  0.00  0.00     0.018 A 
ATOM      9  C7   11 d         -15.004 206.021 123.775  0.00  0.00     0.038 A 
ATOM     10  C8   11 d         -15.740 204.878 124.117  0.00  0.00     0.069 A 
ATOM     11  C12  11 d         -15.987 203.895 123.147  0.00  0.00     0.038 A 
ATOM     12  C13  11 d         -15.542 204.079 121.830  0.00  0.00     0.018 A 
ATOM     13  N2   11 d         -13.396 206.334 119.692  0.00  0.00    -0.141 NA
ATOM     14  N3   11 d         -13.192 206.083 118.439  0.00  0.00    -0.169 N 
ATOM     15  O2   11 d         -11.596 207.512 117.581  0.00  0.00    -0.265 OA
ENDROOT
BRANCH   2  16
ATOM     16  C14  11 d         -12.105 205.930 115.027  0.00  0.00     0.036 C 
BRANCH  16  17
ATOM     17  C15  11 d         -12.832 206.207 113.763  0.00  0.00    -0.033 A 
ATOM     18  C16  11 d         -14.219 205.994 113.616  0.00  0.00     0.037 A 
ATOM     19  C17  11 d         -14.854 206.249 112.390  0.00  0.00     0.056 A 
ATOM     20  C18  11 d         -14.103 206.706 111.289  0.00  0.00     0.055 A 
ATOM     21 Cl2   11 d         -16.612 205.969 112.264  0.00  0.00    -0.083 Cl
ATOM     22 Cl1   11 d         -14.859 207.047 109.712  0.00  0.00    -0.083 Cl
ATOM     23  C19  11 d         -12.719 206.893 111.425  0.00  0.00     0.026 A 
ATOM     24  C20  11 d         -12.086 206.639 112.649  0.00  0.00     0.013 A 
ENDBRANCH  16  17
ENDBRANCH   2  16
BRANCH  10  25
ATOM     25  O1   11 d         -16.102 204.644 125.470  0.00  0.00    -0.347 OA
BRANCH  25  26
ATOM     26  C9   11 d         -17.496 204.242 125.592  0.00  0.00     0.120 C 
ATOM     27  C10  11 d         -18.374 205.494 125.586  0.00  0.00     0.040 C 
ATOM     28  C11  11 d         -17.639 203.477 126.908  0.00  0.00     0.040 C 
ENDBRANCH  25  26
ENDBRANCH  10  25
TORSDOF 4
ENDMDL
MODEL 10
REMARK VINA RESULT:      -7.7      9.230     10.295
REMARK  4 active torsions:
REMARK  status: ('A' for Active; 'I' for Inactive)
REMARK    1  A    between atoms: C2_2  and  C14_19 
REMARK    2  A    between atoms: C8_10  and  O1_11 
REMARK    3  A    between atoms: O1_11  and  C9_12 
REMARK    4  A    between atoms: C14_19  and  C15_20 
ROOT
ATOM      1  C1   11 d         -14.526 206.177 121.073  0.00  0.00     0.287 A 
ATOM      2  C2   11 d         -14.726 204.896 121.647  0.00  0.00     0.079 A 
ATOM      3  S1   11 d         -14.740 203.892 120.504  0.00  0.00    -0.044 SA
ATOM      4  C3   11 d         -14.525 204.807 119.346  0.00  0.00     0.200 A 
ATOM      5  N1   11 d         -14.433 204.697 118.020  0.00  0.00    -0.200 NA
ATOM      6  C4   11 d         -14.258 205.996 117.629  0.00  0.00     0.182 A 
ATOM      7  C5   11 d         -14.150 206.437 116.220  0.00  0.00     0.014 A 
ATOM      8  C6   11 d         -13.809 207.768 115.898  0.00  0.00     0.018 A 
ATOM      9  C7   11 d         -13.743 208.180 114.557  0.00  0.00     0.038 A 
ATOM     10  C8   11 d         -14.010 207.270 113.524  0.00  0.00     0.069 A 
ATOM     11  C12  11 d         -14.376 205.953 113.836  0.00  0.00     0.038 A 
ATOM     12  C13  11 d         -14.426 205.534 115.173  0.00  0.00     0.018 A 
ATOM     13  N2   11 d         -14.239 206.832 118.715  0.00  0.00    -0.141 NA
ATOM     14  N3   11 d         -14.412 206.048 119.731  0.00  0.00    -0.169 N 
ATOM     15  O2   11 d         -14.525 207.275 121.682  0.00  0.00    -0.265 OA
ENDROOT
BRANCH   2  16
ATOM     16  C14  11 d         -14.916 204.526 122.936  0.00  0.00     0.036 C 
BRANCH  16  17
ATOM     17  C15  11 d         -16.218 204.455 123.646  0.00  0.00    -0.033 A 
ATOM     18  C16  11 d         -17.449 204.312 122.973  0.00  0.00     0.037 A 
ATOM     19  C17  11 d         -18.655 204.275 123.692  0.00  0.00     0.056 A 
ATOM     20  C18  11 d         -18.642 204.397 125.095  0.00  0.00     0.055 A 
ATOM     21 Cl2   11 d         -20.182 204.086 122.788  0.00  0.00    -0.083 Cl
ATOM     22 Cl1   11 d         -20.143 204.355 126.055  0.00  0.00    -0.083 Cl
ATOM     23  C19  11 d         -17.422 204.566 125.765  0.00  0.00     0.026 A 
ATOM     24  C20  11 d         -16.218 204.602 125.047  0.00  0.00     0.013 A 
ENDBRANCH  16  17
ENDBRANCH   2  16
BRANCH  10  25
ATOM     25  O1   11 d         -14.059 207.718 112.177  0.00  0.00    -0.347 OA
BRANCH  25  26
ATOM     26  C9   11 d         -13.560 206.707 111.255  0.00  0.00     0.120 C 
ATOM     27  C10  11 d         -12.054 206.900 111.076  0.00  0.00     0.040 C 
ATOM     28  C11  11 d         -14.300 206.891 109.929  0.00  0.00     0.040 C 
ENDBRANCH  25  26
ENDBRANCH  10  25
TORSDOF 4
ENDMDL
