MODEL 1
REMARK VINA RESULT:      -7.2      0.000      0.000
REMARK  6 active torsions:
REMARK  status: ('A' for Active; 'I' for Inactive)
REMARK    1  A    between atoms: C2_2  and  C3_3 
REMARK    2  A    between atoms: N1_4  and  N2_5 
REMARK       I    between atoms: N2_5  and  C4_6 
REMARK    3  A    between atoms: C4_6  and  C5_8 
REMARK    4  A    between atoms: C5_8  and  C6_9 
REMARK    5  A    between atoms: C6_9  and  C7_10 
REMARK    6  A    between atoms: C7_10  and  O2_11 
ROOT
ATOM      1  C3   11 d         -10.950 207.835 111.978  0.00  0.00     0.151 C 
ATOM      2  N1   11 d         -11.436 206.642 112.215  0.00  0.00    -0.184 NA
ENDROOT
BRANCH   2   3
ATOM      3  N2   11 d         -12.487 206.195 111.404  0.00  0.00    -0.247 N 
ATOM      4  C4   11 d         -13.696 205.795 112.033  0.00  0.00     0.237 C 
ATOM      5  O1   11 d         -13.806 205.851 113.310  0.00  0.00    -0.272 OA
ATOM      6  H2   11 d         -12.379 206.156 110.334  0.00  0.00     0.192 HD
BRANCH   4   7
ATOM      7  C5   11 d         -14.861 205.311 111.204  0.00  0.00     0.106 C 
BRANCH   7   8
ATOM      8  C6   11 d         -16.042 206.292 111.145  0.00  0.00     0.035 C 
BRANCH   8   9
ATOM      9  C7   11 d         -17.174 205.881 112.090  0.00  0.00     0.164 C 
BRANCH   9  10
ATOM     10  O2   11 d         -18.377 206.616 111.783  0.00  0.00    -0.401 OA
ATOM     11  H9   11 d         -18.916 206.046 111.105  0.00  0.00     0.209 HD
ENDBRANCH   9  10
ENDBRANCH   8   9
ENDBRANCH   7   8
ENDBRANCH   4   7
ENDBRANCH   2   3
BRANCH   1  12
ATOM     12  C2   11 d          -9.838 208.413 112.787  0.00  0.00     0.005 A 
ATOM     13  C1   11 d          -9.939 208.763 114.162  0.00  0.00     0.047 A 
ATOM     14  C11  11 d          -8.834 209.323 114.826  0.00  0.00     0.048 A 
ATOM     15 Cl2   11 d         -11.406 208.514 115.152  0.00  0.00    -0.083 Cl
ATOM     16  C10  11 d          -7.628 209.537 114.148  0.00  0.00     0.035 A 
ATOM     17  C9   11 d          -7.515 209.183 112.798  0.00  0.00     0.025 A 
ATOM     18 Cl1   11 d          -6.240 210.254 115.001  0.00  0.00    -0.084 Cl
ATOM     19  C8   11 d          -8.609 208.623 112.125  0.00  0.00     0.016 A 
ENDBRANCH   1  12
TORSDOF 6
ENDMDL
MODEL 2
REMARK VINA RESULT:      -6.9      4.038      7.584
REMARK  6 active torsions:
REMARK  status: ('A' for Active; 'I' for Inactive)
REMARK    1  A    between atoms: C2_2  and  C3_3 
REMARK    2  A    between atoms: N1_4  and  N2_5 
REMARK       I    between atoms: N2_5  and  C4_6 
REMARK    3  A    between atoms: C4_6  and  C5_8 
REMARK    4  A    between atoms: C5_8  and  C6_9 
REMARK    5  A    between atoms: C6_9  and  C7_10 
REMARK    6  A    between atoms: C7_10  and  O2_11 
ROOT
ATOM      1  C3   11 d         -10.792 207.112 113.313  0.00  0.00     0.151 C 
ATOM      2  N1   11 d         -10.589 208.081 114.171  0.00  0.00    -0.184 NA
ENDROOT
BRANCH   2   3
ATOM      3  N2   11 d          -9.294 208.236 114.682  0.00  0.00    -0.247 N 
ATOM      4  C4   11 d          -8.526 209.347 114.240  0.00  0.00     0.237 C 
ATOM      5  O1   11 d          -9.023 210.177 113.397  0.00  0.00    -0.272 OA
ATOM      6  H2   11 d          -8.893 207.532 115.391  0.00  0.00     0.192 HD
BRANCH   4   7
ATOM      7  C5   11 d          -7.128 209.563 114.766  0.00  0.00     0.106 C 
BRANCH   7   8
ATOM      8  C6   11 d          -6.045 209.597 113.677  0.00  0.00     0.035 C 
BRANCH   8   9
ATOM      9  C7   11 d          -6.189 208.437 112.690  0.00  0.00     0.164 C 
BRANCH   9  10
ATOM     10  O2   11 d          -6.889 208.868 111.505  0.00  0.00    -0.401 OA
ATOM     11  H9   11 d          -7.815 208.402 111.511  0.00  0.00     0.209 HD
ENDBRANCH   9  10
ENDBRANCH   8   9
ENDBRANCH   7   8
ENDBRANCH   4   7
ENDBRANCH   2   3
BRANCH   1  12
ATOM     12  C2   11 d         -12.132 206.851 112.714  0.00  0.00     0.005 A 
ATOM     13  C1   11 d         -12.434 206.972 111.330  0.00  0.00     0.047 A 
ATOM     14  C11  11 d         -13.739 206.724 110.871  0.00  0.00     0.048 A 
ATOM     15 Cl2   11 d         -11.232 207.406 110.080  0.00  0.00    -0.083 Cl
ATOM     16  C10  11 d         -14.750 206.353 111.765  0.00  0.00     0.035 A 
ATOM     17  C9   11 d         -14.461 206.219 113.128  0.00  0.00     0.025 A 
ATOM     18 Cl1   11 d         -16.400 206.050 111.170  0.00  0.00    -0.084 Cl
ATOM     19  C8   11 d         -13.163 206.462 113.598  0.00  0.00     0.016 A 
ENDBRANCH   1  12
TORSDOF 6
ENDMDL
MODEL 3
REMARK VINA RESULT:      -6.7      4.109      7.670
REMARK  6 active torsions:
REMARK  status: ('A' for Active; 'I' for Inactive)
REMARK    1  A    between atoms: C2_2  and  C3_3 
REMARK    2  A    between atoms: N1_4  and  N2_5 
REMARK       I    between atoms: N2_5  and  C4_6 
REMARK    3  A    between atoms: C4_6  and  C5_8 
REMARK    4  A    between atoms: C5_8  and  C6_9 
REMARK    5  A    between atoms: C6_9  and  C7_10 
REMARK    6  A    between atoms: C7_10  and  O2_11 
ROOT
ATOM      1  C3   11 d         -10.754 207.569 113.597  0.00  0.00     0.151 C 
ATOM      2  N1   11 d          -9.747 208.098 112.950  0.00  0.00    -0.184 NA
ENDROOT
BRANCH   2   3
ATOM      3  N2   11 d          -8.545 208.274 113.649  0.00  0.00    -0.247 N 
ATOM      4  C4   11 d          -7.348 208.429 112.898  0.00  0.00     0.237 C 
ATOM      5  O1   11 d          -7.387 208.409 111.616  0.00  0.00    -0.272 OA
ATOM      6  H2   11 d          -8.531 208.291 114.725  0.00  0.00     0.192 HD
BRANCH   4   7
ATOM      7  C5   11 d          -6.029 208.629 113.603  0.00  0.00     0.106 C 
BRANCH   7   8
ATOM      8  C6   11 d          -6.144 208.754 115.129  0.00  0.00     0.035 C 
BRANCH   8   9
ATOM      9  C7   11 d          -5.566 210.076 115.640  0.00  0.00     0.164 C 
BRANCH   9  10
ATOM     10  O2   11 d          -6.469 211.164 115.355  0.00  0.00    -0.401 OA
ATOM     11  H9   11 d          -5.894 212.020 115.258  0.00  0.00     0.209 HD
ENDBRANCH   9  10
ENDBRANCH   8   9
ENDBRANCH   7   8
ENDBRANCH   4   7
ENDBRANCH   2   3
BRANCH   1  12
ATOM     12  C2   11 d         -12.080 207.345 112.953  0.00  0.00     0.005 A 
ATOM     13  C1   11 d         -13.320 207.802 113.481  0.00  0.00     0.047 A 
ATOM     14  C11  11 d         -14.518 207.518 112.803  0.00  0.00     0.048 A 
ATOM     15 Cl2   11 d         -13.474 208.766 114.978  0.00  0.00    -0.083 Cl
ATOM     16  C10  11 d         -14.506 206.791 111.607  0.00  0.00     0.035 A 
ATOM     17  C9   11 d         -13.290 206.348 111.073  0.00  0.00     0.025 A 
ATOM     18 Cl1   11 d         -16.032 206.432 110.765  0.00  0.00    -0.084 Cl
ATOM     19  C8   11 d         -12.088 206.626 111.738  0.00  0.00     0.016 A 
ENDBRANCH   1  12
TORSDOF 6
ENDMDL
MODEL 4
REMARK VINA RESULT:      -6.6      5.365      6.322
REMARK  6 active torsions:
REMARK  status: ('A' for Active; 'I' for Inactive)
REMARK    1  A    between atoms: C2_2  and  C3_3 
REMARK    2  A    between atoms: N1_4  and  N2_5 
REMARK       I    between atoms: N2_5  and  C4_6 
REMARK    3  A    between atoms: C4_6  and  C5_8 
REMARK    4  A    between atoms: C5_8  and  C6_9 
REMARK    5  A    between atoms: C6_9  and  C7_10 
REMARK    6  A    between atoms: C7_10  and  O2_11 
ROOT
ATOM      1  C3   11 d         -13.623 206.148 115.146  0.00  0.00     0.151 C 
ATOM      2  N1   11 d         -13.514 206.809 116.272  0.00  0.00    -0.184 NA
ENDROOT
BRANCH   2   3
ATOM      3  N2   11 d         -14.234 206.333 117.376  0.00  0.00    -0.247 N 
ATOM      4  C4   11 d         -13.686 206.537 118.672  0.00  0.00     0.237 C 
ATOM      5  O1   11 d         -12.564 207.144 118.807  0.00  0.00    -0.272 OA
ATOM      6  H2   11 d         -15.175 205.828 117.245  0.00  0.00     0.192 HD
BRANCH   4   7
ATOM      7  C5   11 d         -14.424 206.050 119.894  0.00  0.00     0.106 C 
BRANCH   7   8
ATOM      8  C6   11 d         -15.189 207.149 120.647  0.00  0.00     0.035 C 
BRANCH   8   9
ATOM      9  C7   11 d         -16.611 206.713 121.007  0.00  0.00     0.164 C 
BRANCH   9  10
ATOM     10  O2   11 d         -17.576 207.618 120.431  0.00  0.00    -0.401 OA
ATOM     11  H9   11 d         -17.717 208.387 121.111  0.00  0.00     0.209 HD
ENDBRANCH   9  10
ENDBRANCH   8   9
ENDBRANCH   7   8
ENDBRANCH   4   7
ENDBRANCH   2   3
BRANCH   1  12
ATOM     12  C2   11 d         -12.909 206.571 113.907  0.00  0.00     0.005 A 
ATOM     13  C1   11 d         -13.268 206.166 112.592  0.00  0.00     0.047 A 
ATOM     14  C11  11 d         -12.512 206.606 111.491  0.00  0.00     0.048 A 
ATOM     15 Cl2   11 d         -14.669 205.123 112.215  0.00  0.00    -0.083 Cl
ATOM     16  C10  11 d         -11.408 207.447 111.675  0.00  0.00     0.035 A 
ATOM     17  C9   11 d         -11.055 207.862 112.964  0.00  0.00     0.025 A 
ATOM     18 Cl1   11 d         -10.457 207.990 110.272  0.00  0.00    -0.084 Cl
ATOM     19  C8   11 d         -11.801 207.431 114.070  0.00  0.00     0.016 A 
ENDBRANCH   1  12
TORSDOF 6
ENDMDL
MODEL 5
REMARK VINA RESULT:      -6.5      1.626      2.081
REMARK  6 active torsions:
REMARK  status: ('A' for Active; 'I' for Inactive)
REMARK    1  A    between atoms: C2_2  and  C3_3 
REMARK    2  A    between atoms: N1_4  and  N2_5 
REMARK       I    between atoms: N2_5  and  C4_6 
REMARK    3  A    between atoms: C4_6  and  C5_8 
REMARK    4  A    between atoms: C5_8  and  C6_9 
REMARK    5  A    between atoms: C6_9  and  C7_10 
REMARK    6  A    between atoms: C7_10  and  O2_11 
ROOT
ATOM      1  C3   11 d         -10.237 208.106 112.202  0.00  0.00     0.151 C 
ATOM      2  N1   11 d         -11.152 207.188 112.389  0.00  0.00    -0.184 NA
ENDROOT
BRANCH   2   3
ATOM      3  N2   11 d         -12.064 206.958 111.350  0.00  0.00    -0.247 N 
ATOM      4  C4   11 d         -13.439 206.825 111.681  0.00  0.00     0.237 C 
ATOM      5  O1   11 d         -13.818 206.919 112.903  0.00  0.00    -0.272 OA
ATOM      6  H2   11 d         -11.730 206.885 110.329  0.00  0.00     0.192 HD
BRANCH   4   7
ATOM      7  C5   11 d         -14.462 206.583 110.598  0.00  0.00     0.106 C 
BRANCH   7   8
ATOM      8  C6   11 d         -15.894 206.977 110.986  0.00  0.00     0.035 C 
BRANCH   8   9
ATOM      9  C7   11 d         -16.656 205.813 111.624  0.00  0.00     0.164 C 
BRANCH   9  10
ATOM     10  O2   11 d         -17.972 206.237 112.035  0.00  0.00    -0.401 OA
ATOM     11  H9   11 d         -18.173 205.775 112.940  0.00  0.00     0.209 HD
ENDBRANCH   9  10
ENDBRANCH   8   9
ENDBRANCH   7   8
ENDBRANCH   4   7
ENDBRANCH   2   3
BRANCH   1  12
ATOM     12  C2   11 d          -9.224 208.438 113.245  0.00  0.00     0.005 A 
ATOM     13  C1   11 d          -7.822 208.511 113.013  0.00  0.00     0.047 A 
ATOM     14  C11  11 d          -6.950 208.812 114.073  0.00  0.00     0.048 A 
ATOM     15 Cl2   11 d          -7.060 208.266 111.415  0.00  0.00    -0.083 Cl
ATOM     16  C10  11 d          -7.447 209.045 115.361  0.00  0.00     0.035 A 
ATOM     17  C9   11 d          -8.826 208.989 115.597  0.00  0.00     0.025 A 
ATOM     18 Cl1   11 d          -6.329 209.417 116.695  0.00  0.00    -0.084 Cl
ATOM     19  C8   11 d          -9.706 208.692 114.547  0.00  0.00     0.016 A 
ENDBRANCH   1  12
TORSDOF 6
ENDMDL
MODEL 6
REMARK VINA RESULT:      -6.4      4.234      7.980
REMARK  6 active torsions:
REMARK  status: ('A' for Active; 'I' for Inactive)
REMARK    1  A    between atoms: C2_2  and  C3_3 
REMARK    2  A    between atoms: N1_4  and  N2_5 
REMARK       I    between atoms: N2_5  and  C4_6 
REMARK    3  A    between atoms: C4_6  and  C5_8 
REMARK    4  A    between atoms: C5_8  and  C6_9 
REMARK    5  A    between atoms: C6_9  and  C7_10 
REMARK    6  A    between atoms: C7_10  and  O2_11 
ROOT
ATOM      1  C3   11 d         -10.388 207.863 113.536  0.00  0.00     0.151 C 
ATOM      2  N1   11 d          -9.302 208.052 112.828  0.00  0.00    -0.184 NA
ENDROOT
BRANCH   2   3
ATOM      3  N2   11 d          -8.115 208.326 113.519  0.00  0.00    -0.247 N 
ATOM      4  C4   11 d          -6.920 208.478 112.766  0.00  0.00     0.237 C 
ATOM      5  O1   11 d          -6.947 208.368 111.487  0.00  0.00    -0.272 OA
ATOM      6  H2   11 d          -8.109 208.417 114.592  0.00  0.00     0.192 HD
BRANCH   4   7
ATOM      7  C5   11 d          -5.615 208.780 113.461  0.00  0.00     0.106 C 
BRANCH   7   8
ATOM      8  C6   11 d          -5.054 207.610 114.282  0.00  0.00     0.035 C 
BRANCH   8   9
ATOM      9  C7   11 d          -3.556 207.406 114.037  0.00  0.00     0.164 C 
BRANCH   9  10
ATOM     10  O2   11 d          -3.312 207.087 112.651  0.00  0.00    -0.401 OA
ATOM     11  H9   11 d          -4.198 207.254 112.139  0.00  0.00     0.209 HD
ENDBRANCH   9  10
ENDBRANCH   8   9
ENDBRANCH   7   8
ENDBRANCH   4   7
ENDBRANCH   2   3
BRANCH   1  12
ATOM     12  C2   11 d         -11.707 207.575 112.903  0.00  0.00     0.005 A 
ATOM     13  C1   11 d         -12.966 207.821 113.517  0.00  0.00     0.047 A 
ATOM     14  C11  11 d         -14.153 207.491 112.839  0.00  0.00     0.048 A 
ATOM     15 Cl2   11 d         -13.164 208.567 115.129  0.00  0.00    -0.083 Cl
ATOM     16  C10  11 d         -14.110 206.925 111.560  0.00  0.00     0.035 A 
ATOM     17  C9   11 d         -12.876 206.691 110.942  0.00  0.00     0.025 A 
ATOM     18 Cl1   11 d         -15.621 206.506 110.718  0.00  0.00    -0.084 Cl
ATOM     19  C8   11 d         -11.685 207.017 111.606  0.00  0.00     0.016 A 
ENDBRANCH   1  12
TORSDOF 6
ENDMDL
MODEL 7
REMARK VINA RESULT:      -6.4      4.917      6.091
REMARK  6 active torsions:
REMARK  status: ('A' for Active; 'I' for Inactive)
REMARK    1  A    between atoms: C2_2  and  C3_3 
REMARK    2  A    between atoms: N1_4  and  N2_5 
REMARK       I    between atoms: N2_5  and  C4_6 
REMARK    3  A    between atoms: C4_6  and  C5_8 
REMARK    4  A    between atoms: C5_8  and  C6_9 
REMARK    5  A    between atoms: C6_9  and  C7_10 
REMARK    6  A    between atoms: C7_10  and  O2_11 
ROOT
ATOM      1  C3   11 d         -13.329 206.340 115.413  0.00  0.00     0.151 C 
ATOM      2  N1   11 d         -13.895 207.247 116.170  0.00  0.00    -0.184 NA
ENDROOT
BRANCH   2   3
ATOM      3  N2   11 d         -14.492 206.818 117.363  0.00  0.00    -0.247 N 
ATOM      4  C4   11 d         -13.869 207.171 118.590  0.00  0.00     0.237 C 
ATOM      5  O1   11 d         -12.791 207.867 118.587  0.00  0.00    -0.272 OA
ATOM      6  H2   11 d         -15.398 206.237 117.348  0.00  0.00     0.192 HD
BRANCH   4   7
ATOM      7  C5   11 d         -14.475 206.739 119.902  0.00  0.00     0.106 C 
BRANCH   7   8
ATOM      8  C6   11 d         -14.161 205.288 120.294  0.00  0.00     0.035 C 
BRANCH   8   9
ATOM      9  C7   11 d         -15.342 204.353 120.024  0.00  0.00     0.164 C 
BRANCH   9  10
ATOM     10  O2   11 d         -15.445 204.067 118.614  0.00  0.00    -0.401 OA
ATOM     11  H9   11 d         -14.708 204.618 118.136  0.00  0.00     0.209 HD
ENDBRANCH   9  10
ENDBRANCH   8   9
ENDBRANCH   7   8
ENDBRANCH   4   7
ENDBRANCH   2   3
BRANCH   1  12
ATOM     12  C2   11 d         -12.673 206.685 114.119  0.00  0.00     0.005 A 
ATOM     13  C1   11 d         -11.534 207.527 113.992  0.00  0.00     0.047 A 
ATOM     14  C11  11 d         -11.006 207.807 112.720  0.00  0.00     0.048 A 
ATOM     15 Cl2   11 d         -10.676 208.263 115.377  0.00  0.00    -0.083 Cl
ATOM     16  C10  11 d         -11.589 207.260 111.571  0.00  0.00     0.035 A 
ATOM     17  C9   11 d         -12.702 206.419 111.686  0.00  0.00     0.025 A 
ATOM     18 Cl1   11 d         -10.913 207.629 109.966  0.00  0.00    -0.084 Cl
ATOM     19  C8   11 d         -13.237 206.132 112.949  0.00  0.00     0.016 A 
ENDBRANCH   1  12
TORSDOF 6
ENDMDL
MODEL 8
REMARK VINA RESULT:      -6.1      4.997      7.191
REMARK  6 active torsions:
REMARK  status: ('A' for Active; 'I' for Inactive)
REMARK    1  A    between atoms: C2_2  and  C3_3 
REMARK    2  A    between atoms: N1_4  and  N2_5 
REMARK       I    between atoms: N2_5  and  C4_6 
REMARK    3  A    between atoms: C4_6  and  C5_8 
REMARK    4  A    between atoms: C5_8  and  C6_9 
REMARK    5  A    between atoms: C6_9  and  C7_10 
REMARK    6  A    between atoms: C7_10  and  O2_11 
ROOT
ATOM      1  C3   11 d         -14.762 205.823 115.164  0.00  0.00     0.151 C 
ATOM      2  N1   11 d         -14.508 206.704 116.098  0.00  0.00    -0.184 NA
ENDROOT
BRANCH   2   3
ATOM      3  N2   11 d         -14.543 206.267 117.430  0.00  0.00    -0.247 N 
ATOM      4  C4   11 d         -13.328 206.265 118.167  0.00  0.00     0.237 C 
ATOM      5  O1   11 d         -12.239 206.659 117.613  0.00  0.00    -0.272 OA
ATOM      6  H2   11 d         -15.465 205.943 117.880  0.00  0.00     0.192 HD
BRANCH   4   7
ATOM      7  C5   11 d         -13.312 205.811 119.605  0.00  0.00     0.106 C 
BRANCH   7   8
ATOM      8  C6   11 d         -14.706 205.624 120.222  0.00  0.00     0.035 C 
BRANCH   8   9
ATOM      9  C7   11 d         -15.177 204.169 120.141  0.00  0.00     0.164 C 
BRANCH   9  10
ATOM     10  O2   11 d         -15.968 203.961 118.953  0.00  0.00    -0.401 OA
ATOM     11  H9   11 d         -15.404 203.376 118.310  0.00  0.00     0.209 HD
ENDBRANCH   9  10
ENDBRANCH   8   9
ENDBRANCH   7   8
ENDBRANCH   4   7
ENDBRANCH   2   3
BRANCH   1  12
ATOM     12  C2   11 d         -14.762 206.181 113.716  0.00  0.00     0.005 A 
ATOM     13  C1   11 d         -13.591 206.439 112.950  0.00  0.00     0.047 A 
ATOM     14  C11  11 d         -13.704 206.791 111.594  0.00  0.00     0.048 A 
ATOM     15 Cl2   11 d         -11.928 206.320 113.594  0.00  0.00    -0.083 Cl
ATOM     16  C10  11 d         -14.960 206.888 110.984  0.00  0.00     0.035 A 
ATOM     17  C9   11 d         -16.117 206.624 111.726  0.00  0.00     0.025 A 
ATOM     18 Cl1   11 d         -15.086 207.343 109.268  0.00  0.00    -0.084 Cl
ATOM     19  C8   11 d         -16.018 206.270 113.079  0.00  0.00     0.016 A 
ENDBRANCH   1  12
TORSDOF 6
ENDMDL
MODEL 9
REMARK VINA RESULT:      -6.0      5.380      7.247
REMARK  6 active torsions:
REMARK  status: ('A' for Active; 'I' for Inactive)
REMARK    1  A    between atoms: C2_2  and  C3_3 
REMARK    2  A    between atoms: N1_4  and  N2_5 
REMARK       I    between atoms: N2_5  and  C4_6 
REMARK    3  A    between atoms: C4_6  and  C5_8 
REMARK    4  A    between atoms: C5_8  and  C6_9 
REMARK    5  A    between atoms: C6_9  and  C7_10 
REMARK    6  A    between atoms: C7_10  and  O2_11 
ROOT
ATOM      1  C3   11 d         -14.745 206.039 115.605  0.00  0.00     0.151 C 
ATOM      2  N1   11 d         -14.570 204.857 116.142  0.00  0.00    -0.184 NA
ENDROOT
BRANCH   2   3
ATOM      3  N2   11 d         -14.706 204.749 117.533  0.00  0.00    -0.247 N 
ATOM      4  C4   11 d         -15.348 203.595 118.057  0.00  0.00     0.237 C 
ATOM      5  O1   11 d         -15.783 202.685 117.263  0.00  0.00    -0.272 OA
ATOM      6  H2   11 d         -14.333 205.520 118.185  0.00  0.00     0.192 HD
BRANCH   4   7
ATOM      7  C5   11 d         -15.513 203.427 119.547  0.00  0.00     0.106 C 
BRANCH   7   8
ATOM      8  C6   11 d         -14.820 204.513 120.383  0.00  0.00     0.035 C 
BRANCH   8   9
ATOM      9  C7   11 d         -15.817 205.537 120.930  0.00  0.00     0.164 C 
BRANCH   9  10
ATOM     10  O2   11 d         -15.810 206.730 120.119  0.00  0.00    -0.401 OA
ATOM     11  H9   11 d         -16.634 207.294 120.399  0.00  0.00     0.209 HD
ENDBRANCH   9  10
ENDBRANCH   8   9
ENDBRANCH   7   8
ENDBRANCH   4   7
ENDBRANCH   2   3
BRANCH   1  12
ATOM     12  C2   11 d         -14.615 206.269 114.137  0.00  0.00     0.005 A 
ATOM     13  C1   11 d         -13.380 206.303 113.433  0.00  0.00     0.047 A 
ATOM     14  C11  11 d         -13.368 206.549 112.049  0.00  0.00     0.048 A 
ATOM     15 Cl2   11 d         -11.788 206.021 114.193  0.00  0.00    -0.083 Cl
ATOM     16  C10  11 d         -14.564 206.759 111.352  0.00  0.00     0.035 A 
ATOM     17  C9   11 d         -15.786 206.714 112.034  0.00  0.00     0.025 A 
ATOM     18 Cl1   11 d         -14.532 207.078 109.601  0.00  0.00    -0.084 Cl
ATOM     19  C8   11 d         -15.811 206.468 113.413  0.00  0.00     0.016 A 
ENDBRANCH   1  12
TORSDOF 6
ENDMDL
MODEL 10
REMARK VINA RESULT:      -6.0      5.187      8.441
REMARK  6 active torsions:
REMARK  status: ('A' for Active; 'I' for Inactive)
REMARK    1  A    between atoms: C2_2  and  C3_3 
REMARK    2  A    between atoms: N1_4  and  N2_5 
REMARK       I    between atoms: N2_5  and  C4_6 
REMARK    3  A    between atoms: C4_6  and  C5_8 
REMARK    4  A    between atoms: C5_8  and  C6_9 
REMARK    5  A    between atoms: C6_9  and  C7_10 
REMARK    6  A    between atoms: C7_10  and  O2_11 
ROOT
ATOM      1  C3   11 d          -8.515 209.653 114.468  0.00  0.00     0.151 C 
ATOM      2  N1   11 d          -7.596 209.098 115.218  0.00  0.00    -0.184 NA
ENDROOT
BRANCH   2   3
ATOM      3  N2   11 d          -6.673 209.944 115.848  0.00  0.00    -0.247 N 
ATOM      4  C4   11 d          -6.071 209.499 117.055  0.00  0.00     0.237 C 
ATOM      5  O1   11 d          -6.373 208.350 117.539  0.00  0.00    -0.272 OA
ATOM      6  H2   11 d          -6.429 210.904 115.427  0.00  0.00     0.192 HD
BRANCH   4   7
ATOM      7  C5   11 d          -5.066 210.370 117.769  0.00  0.00     0.106 C 
BRANCH   7   8
ATOM      8  C6   11 d          -5.055 210.197 119.295  0.00  0.00     0.035 C 
BRANCH   8   9
ATOM      9  C7   11 d          -6.239 210.905 119.960  0.00  0.00     0.164 C 
BRANCH   9  10
ATOM     10  O2   11 d          -6.474 212.185 119.338  0.00  0.00    -0.401 OA
ATOM     11  H9   11 d          -6.034 212.903 119.942  0.00  0.00     0.209 HD
ENDBRANCH   9  10
ENDBRANCH   8   9
ENDBRANCH   7   8
ENDBRANCH   4   7
ENDBRANCH   2   3
BRANCH   1  12
ATOM     12  C2   11 d          -9.540 208.846 113.744  0.00  0.00     0.005 A 
ATOM     13  C1   11 d         -10.604 208.143 114.374  0.00  0.00     0.047 A 
ATOM     14  C11  11 d         -11.505 207.393 113.599  0.00  0.00     0.048 A 
ATOM     15 Cl2   11 d         -10.910 208.162 116.135  0.00  0.00    -0.083 Cl
ATOM     16  C10  11 d         -11.370 207.333 112.207  0.00  0.00     0.035 A 
ATOM     17  C9   11 d         -10.333 208.032 111.577  0.00  0.00     0.025 A 
ATOM     18 Cl1   11 d         -12.514 206.372 111.240  0.00  0.00    -0.084 Cl
ATOM     19  C8   11 d          -9.429 208.785 112.338  0.00  0.00     0.016 A 
ENDBRANCH   1  12
TORSDOF 6
ENDMDL
