MODEL 1
REMARK VINA RESULT:      -7.8      0.000      0.000
REMARK  1 active torsions:
REMARK  status: ('A' for Active; 'I' for Inactive)
REMARK    1  A    between atoms: C8_9  and  O2_10 
ROOT
ATOM      1  C1   11 d          -5.572 207.559 116.296  0.00  0.00     0.037 C 
ATOM      2  C2   11 d          -5.410 206.343 117.173  0.00  0.00     0.160 C 
ATOM      3  O1   11 d          -6.392 205.908 117.825  0.00  0.00    -0.293 OA
ATOM      4  C3   11 d          -4.133 205.537 117.200  0.00  0.00     0.093 C 
ATOM      5  C4   11 d          -3.020 206.187 116.356  0.00  0.00     0.031 C 
ATOM      6  C5   11 d          -2.271 207.342 117.025  0.00  0.00    -0.053 A 
ATOM      7  C6   11 d          -1.029 207.747 116.484  0.00  0.00     0.010 A 
ATOM      8  C7   11 d          -0.266 208.753 117.101  0.00  0.00     0.037 A 
ATOM      9  C8   11 d          -0.722 209.367 118.275  0.00  0.00     0.068 A 
ATOM     10  C10  11 d          -1.921 208.936 118.857  0.00  0.00     0.037 A 
ATOM     11  C11  11 d          -2.692 207.945 118.237  0.00  0.00     0.010 A 
ATOM     12  C12  11 d          -3.635 206.590 114.999  0.00  0.00     0.067 C 
ATOM     13  C13  11 d          -4.838 207.521 115.124  0.00  0.00     0.022 C 
ATOM     14  N1   11 d          -5.059 208.316 113.998  0.00  0.00    -0.357 N 
ATOM     15  C14  11 d          -6.322 208.666 113.572  0.00  0.00     0.059 A 
ATOM     16  C15  11 d          -7.212 209.314 114.442  0.00  0.00     0.055 A 
ATOM     17  C16  11 d          -8.498 209.673 114.004  0.00  0.00     0.031 A 
ATOM     18  C17  11 d          -8.901 209.370 112.694  0.00  0.00     0.002 A 
ATOM     19  C18  11 d          -8.014 208.728 111.818  0.00  0.00     0.002 A 
ATOM     20  C19  11 d          -6.724 208.383 112.254  0.00  0.00     0.032 A 
ATOM     21  N2   11 d          -6.770 209.672 115.691  0.00  0.00    -0.375 N 
ATOM     22  C20  11 d          -6.544 208.704 116.716  0.00  0.00     0.155 C 
ATOM     23  C21  11 d          -6.053 209.347 118.042  0.00  0.00    -0.013 A 
ATOM     24  C22  11 d          -6.132 208.624 119.258  0.00  0.00     0.125 A 
ATOM     25  N3   11 d          -5.685 209.148 120.435  0.00  0.00    -0.272 NA
ATOM     26  C23  11 d          -5.148 210.392 120.514  0.00  0.00     0.116 A 
ATOM     27  C24  11 d          -5.059 211.177 119.364  0.00  0.00     0.020 A 
ATOM     28  C25  11 d          -5.513 210.661 118.142  0.00  0.00     0.012 A 
ATOM     29  H13  11 d          -4.286 208.632 113.458  0.00  0.00     0.166 HD
ATOM     30  H18  11 d          -6.631 210.642 115.818  0.00  0.00     0.160 HD
ENDROOT
BRANCH   9  31
ATOM     31  O2   11 d           0.100 210.311 118.946  0.00  0.00    -0.356 OA
ATOM     32  C9   11 d          -0.729 211.236 119.695  0.00  0.00     0.210 C 
ENDBRANCH   9  31
TORSDOF 1
ENDMDL
MODEL 2
REMARK VINA RESULT:      -7.7      2.747      6.739
REMARK  1 active torsions:
REMARK  status: ('A' for Active; 'I' for Inactive)
REMARK    1  A    between atoms: C8_9  and  O2_10 
ROOT
ATOM      1  C1   11 d          -5.330 208.488 116.456  0.00  0.00     0.037 C 
ATOM      2  C2   11 d          -5.507 209.985 116.498  0.00  0.00     0.160 C 
ATOM      3  O1   11 d          -5.139 210.629 117.512  0.00  0.00    -0.293 OA
ATOM      4  C3   11 d          -5.997 210.769 115.304  0.00  0.00     0.093 C 
ATOM      5  C4   11 d          -6.410 209.850 114.139  0.00  0.00     0.031 C 
ATOM      6  C5   11 d          -7.799 209.217 114.255  0.00  0.00    -0.053 A 
ATOM      7  C6   11 d          -8.392 208.668 113.095  0.00  0.00     0.010 A 
ATOM      8  C7   11 d          -9.693 208.140 113.130  0.00  0.00     0.037 A 
ATOM      9  C8   11 d         -10.433 208.158 114.321  0.00  0.00     0.068 A 
ATOM     10  C10  11 d          -9.883 208.753 115.465  0.00  0.00     0.037 A 
ATOM     11  C11  11 d          -8.580 209.266 115.437  0.00  0.00     0.010 A 
ATOM     12  C12  11 d          -5.296 208.800 113.951  0.00  0.00     0.067 C 
ATOM     13  C13  11 d          -5.005 207.985 115.209  0.00  0.00     0.022 C 
ATOM     14  N1   11 d          -4.452 206.728 114.955  0.00  0.00    -0.357 N 
ATOM     15  C14  11 d          -3.521 206.144 115.787  0.00  0.00     0.059 A 
ATOM     16  C15  11 d          -3.800 205.960 117.150  0.00  0.00     0.055 A 
ATOM     17  C16  11 d          -2.850 205.361 117.994  0.00  0.00     0.031 A 
ATOM     18  C17  11 d          -1.609 204.958 117.477  0.00  0.00     0.002 A 
ATOM     19  C18  11 d          -1.327 205.134 116.114  0.00  0.00     0.002 A 
ATOM     20  C19  11 d          -2.284 205.720 115.269  0.00  0.00     0.032 A 
ATOM     21  N2   11 d          -5.049 206.288 117.617  0.00  0.00    -0.375 N 
ATOM     22  C20  11 d          -5.466 207.646 117.761  0.00  0.00     0.155 C 
ATOM     23  C21  11 d          -6.913 207.766 118.313  0.00  0.00    -0.013 A 
ATOM     24  C22  11 d          -7.366 208.988 118.870  0.00  0.00     0.125 A 
ATOM     25  N3   11 d          -8.638 209.136 119.338  0.00  0.00    -0.272 NA
ATOM     26  C23  11 d          -9.541 208.123 119.307  0.00  0.00     0.116 A 
ATOM     27  C24  11 d          -9.164 206.881 118.797  0.00  0.00     0.020 A 
ATOM     28  C25  11 d          -7.862 206.703 118.311  0.00  0.00     0.012 A 
ATOM     29  H13  11 d          -4.715 206.231 114.135  0.00  0.00     0.166 HD
ATOM     30  H18  11 d          -5.619 205.515 117.847  0.00  0.00     0.160 HD
ENDROOT
BRANCH   9  31
ATOM     31  O2   11 d         -11.782 207.713 114.325  0.00  0.00    -0.356 OA
ATOM     32  C9   11 d         -12.147 207.248 113.002  0.00  0.00     0.210 C 
ENDBRANCH   9  31
TORSDOF 1
ENDMDL
MODEL 3
REMARK VINA RESULT:      -7.6      2.183      3.211
REMARK  1 active torsions:
REMARK  status: ('A' for Active; 'I' for Inactive)
REMARK    1  A    between atoms: C8_9  and  O2_10 
ROOT
ATOM      1  C1   11 d          -6.476 207.785 117.319  0.00  0.00     0.037 C 
ATOM      2  C2   11 d          -5.531 206.687 117.738  0.00  0.00     0.160 C 
ATOM      3  O1   11 d          -5.956 205.512 117.867  0.00  0.00    -0.293 OA
ATOM      4  C3   11 d          -4.046 206.919 117.887  0.00  0.00     0.093 C 
ATOM      5  C4   11 d          -3.671 208.402 117.701  0.00  0.00     0.031 C 
ATOM      6  C5   11 d          -3.903 209.302 118.918  0.00  0.00    -0.053 A 
ATOM      7  C6   11 d          -3.267 210.563 118.959  0.00  0.00     0.010 A 
ATOM      8  C7   11 d          -3.388 211.397 120.083  0.00  0.00     0.037 A 
ATOM      9  C8   11 d          -4.139 210.984 121.193  0.00  0.00     0.068 A 
ATOM     10  C10  11 d          -4.727 209.713 121.192  0.00  0.00     0.037 A 
ATOM     11  C11  11 d          -4.621 208.885 120.067  0.00  0.00     0.010 A 
ATOM     12  C12  11 d          -4.397 208.915 116.440  0.00  0.00     0.067 C 
ATOM     13  C13  11 d          -5.912 208.740 116.492  0.00  0.00     0.022 C 
ATOM     14  N1   11 d          -6.615 209.641 115.690  0.00  0.00    -0.357 N 
ATOM     15  C14  11 d          -7.781 209.303 115.038  0.00  0.00     0.059 A 
ATOM     16  C15  11 d          -8.874 208.789 115.753  0.00  0.00     0.055 A 
ATOM     17  C16  11 d         -10.062 208.449 115.085  0.00  0.00     0.031 A 
ATOM     18  C17  11 d         -10.154 208.608 113.694  0.00  0.00     0.002 A 
ATOM     19  C18  11 d          -9.067 209.127 112.975  0.00  0.00     0.002 A 
ATOM     20  C19  11 d          -7.885 209.480 113.646  0.00  0.00     0.032 A 
ATOM     21  N2   11 d          -8.791 208.718 117.122  0.00  0.00    -0.375 N 
ATOM     22  C20  11 d          -7.966 207.753 117.776  0.00  0.00     0.155 C 
ATOM     23  C21  11 d          -8.041 207.861 119.324  0.00  0.00    -0.013 A 
ATOM     24  C22  11 d          -7.607 206.784 120.137  0.00  0.00     0.125 A 
ATOM     25  N3   11 d          -7.634 206.857 121.498  0.00  0.00    -0.272 NA
ATOM     26  C23  11 d          -8.083 207.957 122.154  0.00  0.00     0.116 A 
ATOM     27  C24  11 d          -8.551 209.049 121.424  0.00  0.00     0.020 A 
ATOM     28  C25  11 d          -8.536 208.999 120.024  0.00  0.00     0.012 A 
ATOM     29  H13  11 d          -6.262 210.562 115.557  0.00  0.00     0.166 HD
ATOM     30  H18  11 d          -9.346 209.376 117.604  0.00  0.00     0.160 HD
ENDROOT
BRANCH   9  31
ATOM     31  O2   11 d          -4.175 211.789 122.362  0.00  0.00    -0.356 OA
ATOM     32  C9   11 d          -5.494 212.372 122.514  0.00  0.00     0.210 C 
ENDBRANCH   9  31
TORSDOF 1
ENDMDL
MODEL 4
REMARK VINA RESULT:      -7.1      3.398      4.893
REMARK  1 active torsions:
REMARK  status: ('A' for Active; 'I' for Inactive)
REMARK    1  A    between atoms: C8_9  and  O2_10 
ROOT
ATOM      1  C1   11 d          -7.682 207.201 118.159  0.00  0.00     0.037 C 
ATOM      2  C2   11 d          -6.277 206.659 118.069  0.00  0.00     0.160 C 
ATOM      3  O1   11 d          -6.072 205.428 118.210  0.00  0.00    -0.293 OA
ATOM      4  C3   11 d          -5.104 207.529 117.684  0.00  0.00     0.093 C 
ATOM      5  C4   11 d          -5.504 209.010 117.544  0.00  0.00     0.031 C 
ATOM      6  C5   11 d          -5.615 209.793 118.855  0.00  0.00    -0.053 A 
ATOM      7  C6   11 d          -5.619 211.205 118.803  0.00  0.00     0.010 A 
ATOM      8  C7   11 d          -5.647 211.972 119.980  0.00  0.00     0.037 A 
ATOM      9  C8   11 d          -5.660 211.344 121.234  0.00  0.00     0.068 A 
ATOM     10  C10  11 d          -5.596 209.946 121.304  0.00  0.00     0.037 A 
ATOM     11  C11  11 d          -5.584 209.179 120.133  0.00  0.00     0.010 A 
ATOM     12  C12  11 d          -6.800 209.070 116.710  0.00  0.00     0.067 C 
ATOM     13  C13  11 d          -7.946 208.251 117.298  0.00  0.00     0.022 C 
ATOM     14  N1   11 d          -9.214 208.698 116.923  0.00  0.00    -0.357 N 
ATOM     15  C14  11 d         -10.273 207.840 116.714  0.00  0.00     0.059 A 
ATOM     16  C15  11 d         -10.673 206.946 117.719  0.00  0.00     0.055 A 
ATOM     17  C16  11 d         -11.755 206.075 117.504  0.00  0.00     0.031 A 
ATOM     18  C17  11 d         -12.431 206.088 116.274  0.00  0.00     0.002 A 
ATOM     19  C18  11 d         -12.038 206.984 115.268  0.00  0.00     0.002 A 
ATOM     20  C19  11 d         -10.966 207.863 115.490  0.00  0.00     0.032 A 
ATOM     21  N2   11 d         -10.052 207.007 118.941  0.00  0.00    -0.375 N 
ATOM     22  C20  11 d          -8.713 206.546 119.128  0.00  0.00     0.155 C 
ATOM     23  C21  11 d          -8.229 206.710 120.595  0.00  0.00    -0.013 A 
ATOM     24  C22  11 d          -7.101 205.988 121.060  0.00  0.00     0.125 A 
ATOM     25  N3   11 d          -6.634 206.129 122.333  0.00  0.00    -0.272 NA
ATOM     26  C23  11 d          -7.223 206.960 123.231  0.00  0.00     0.116 A 
ATOM     27  C24  11 d          -8.353 207.686 122.857  0.00  0.00     0.020 A 
ATOM     28  C25  11 d          -8.854 207.557 121.554  0.00  0.00     0.012 A 
ATOM     29  H13  11 d          -9.371 209.669 116.775  0.00  0.00     0.166 HD
ATOM     30  H18  11 d         -10.605 207.383 119.667  0.00  0.00     0.160 HD
ENDROOT
BRANCH   9  31
ATOM     31  O2   11 d          -5.588 212.124 122.418  0.00  0.00    -0.356 OA
ATOM     32  C9   11 d          -5.541 211.252 123.575  0.00  0.00     0.210 C 
ENDBRANCH   9  31
TORSDOF 1
ENDMDL
MODEL 5
REMARK VINA RESULT:      -7.1     13.649     16.120
REMARK  1 active torsions:
REMARK  status: ('A' for Active; 'I' for Inactive)
REMARK    1  A    between atoms: C8_9  and  O2_10 
ROOT
ATOM      1  C1   11 d         -18.230 204.818 120.642  0.00  0.00     0.037 C 
ATOM      2  C2   11 d         -19.503 205.626 120.612  0.00  0.00     0.160 C 
ATOM      3  O1   11 d         -19.447 206.881 120.603  0.00  0.00    -0.293 OA
ATOM      4  C3   11 d         -20.860 204.980 120.459  0.00  0.00     0.093 C 
ATOM      5  C4   11 d         -20.775 203.442 120.485  0.00  0.00     0.031 C 
ATOM      6  C5   11 d         -20.662 202.808 121.873  0.00  0.00    -0.053 A 
ATOM      7  C6   11 d         -20.939 201.429 122.012  0.00  0.00     0.010 A 
ATOM      8  C7   11 d         -20.920 200.812 123.274  0.00  0.00     0.037 A 
ATOM      9  C8   11 d         -20.636 201.561 124.425  0.00  0.00     0.068 A 
ATOM     10  C10  11 d         -20.419 202.941 124.311  0.00  0.00     0.037 A 
ATOM     11  C11  11 d         -20.421 203.556 123.053  0.00  0.00     0.010 A 
ATOM     12  C12  11 d         -19.624 203.020 119.548  0.00  0.00     0.067 C 
ATOM     13  C13  11 d         -18.279 203.645 119.910  0.00  0.00     0.022 C 
ATOM     14  N1   11 d         -17.176 202.905 119.481  0.00  0.00    -0.357 N 
ATOM     15  C14  11 d         -16.003 203.495 119.060  0.00  0.00     0.059 A 
ATOM     16  C15  11 d         -15.320 204.394 119.893  0.00  0.00     0.055 A 
ATOM     17  C16  11 d         -14.123 204.991 119.461  0.00  0.00     0.031 A 
ATOM     18  C17  11 d         -13.615 204.699 118.186  0.00  0.00     0.002 A 
ATOM     19  C18  11 d         -14.291 203.796 117.352  0.00  0.00     0.002 A 
ATOM     20  C19  11 d         -15.479 203.190 117.791  0.00  0.00     0.032 A 
ATOM     21  N2   11 d         -15.791 204.603 121.165  0.00  0.00    -0.375 N 
ATOM     22  C20  11 d         -16.983 205.350 121.413  0.00  0.00     0.155 C 
ATOM     23  C21  11 d         -17.311 205.458 122.927  0.00  0.00    -0.013 A 
ATOM     24  C22  11 d         -18.213 206.446 123.394  0.00  0.00     0.125 A 
ATOM     25  N3   11 d         -18.544 206.550 124.712  0.00  0.00    -0.272 NA
ATOM     26  C23  11 d         -18.025 205.723 125.655  0.00  0.00     0.116 A 
ATOM     27  C24  11 d         -17.110 204.740 125.278  0.00  0.00     0.020 A 
ATOM     28  C25  11 d         -16.752 204.614 123.929  0.00  0.00     0.012 A 
ATOM     29  H13  11 d         -17.230 201.912 119.452  0.00  0.00     0.166 HD
ATOM     30  H18  11 d         -15.240 204.205 121.880  0.00  0.00     0.160 HD
ENDROOT
BRANCH   9  31
ATOM     31  O2   11 d         -20.717 200.953 125.705  0.00  0.00    -0.356 OA
ATOM     32  C9   11 d         -21.715 201.633 126.507  0.00  0.00     0.210 C 
ENDBRANCH   9  31
TORSDOF 1
ENDMDL
MODEL 6
REMARK VINA RESULT:      -7.0     13.939     16.989
REMARK  1 active torsions:
REMARK  status: ('A' for Active; 'I' for Inactive)
REMARK    1  A    between atoms: C8_9  and  O2_10 
ROOT
ATOM      1  C1   11 d         -16.700 204.802 124.175  0.00  0.00     0.037 C 
ATOM      2  C2   11 d         -17.537 206.049 124.031  0.00  0.00     0.160 C 
ATOM      3  O1   11 d         -17.389 206.997 124.842  0.00  0.00    -0.293 OA
ATOM      4  C3   11 d         -18.468 206.260 122.861  0.00  0.00     0.093 C 
ATOM      5  C4   11 d         -18.547 205.018 121.953  0.00  0.00     0.031 C 
ATOM      6  C5   11 d         -19.467 203.897 122.443  0.00  0.00    -0.053 A 
ATOM      7  C6   11 d         -19.874 202.904 121.524  0.00  0.00     0.010 A 
ATOM      8  C7   11 d         -20.774 201.894 121.902  0.00  0.00     0.037 A 
ATOM      9  C8   11 d         -21.295 201.862 123.204  0.00  0.00     0.068 A 
ATOM     10  C10  11 d         -20.949 202.873 124.109  0.00  0.00     0.037 A 
ATOM     11  C11  11 d         -20.040 203.872 123.740  0.00  0.00     0.010 A 
ATOM     12  C12  11 d         -17.106 204.530 121.698  0.00  0.00     0.067 C 
ATOM     13  C13  11 d         -16.329 204.221 122.975  0.00  0.00     0.022 C 
ATOM     14  N1   11 d         -15.296 203.299 122.801  0.00  0.00    -0.357 N 
ATOM     15  C14  11 d         -14.111 203.370 123.501  0.00  0.00     0.059 A 
ATOM     16  C15  11 d         -14.113 203.394 124.904  0.00  0.00     0.055 A 
ATOM     17  C16  11 d         -12.902 203.463 125.615  0.00  0.00     0.031 A 
ATOM     18  C17  11 d         -11.685 203.522 124.919  0.00  0.00     0.002 A 
ATOM     19  C18  11 d         -11.676 203.492 123.517  0.00  0.00     0.002 A 
ATOM     20  C19  11 d         -12.886 203.409 122.809  0.00  0.00     0.032 A 
ATOM     21  N2   11 d         -15.308 203.253 125.564  0.00  0.00    -0.375 N 
ATOM     22  C20  11 d         -16.282 204.298 125.590  0.00  0.00     0.155 C 
ATOM     23  C21  11 d         -17.547 203.911 126.403  0.00  0.00    -0.013 A 
ATOM     24  C22  11 d         -18.441 204.913 126.854  0.00  0.00     0.125 A 
ATOM     25  N3   11 d         -19.575 204.605 127.546  0.00  0.00    -0.272 NA
ATOM     26  C23  11 d         -19.910 203.325 127.850  0.00  0.00     0.116 A 
ATOM     27  C24  11 d         -19.068 202.284 127.462  0.00  0.00     0.020 A 
ATOM     28  C25  11 d         -17.896 202.574 126.751  0.00  0.00     0.012 A 
ATOM     29  H13  11 d         -15.395 202.567 122.134  0.00  0.00     0.166 HD
ATOM     30  H18  11 d         -15.431 202.384 126.017  0.00  0.00     0.160 HD
ENDROOT
BRANCH   9  31
ATOM     31  O2   11 d         -22.279 200.898 123.549  0.00  0.00    -0.356 OA
ATOM     32  C9   11 d         -23.519 201.566 123.892  0.00  0.00     0.210 C 
ENDBRANCH   9  31
TORSDOF 1
ENDMDL
MODEL 7
REMARK VINA RESULT:      -6.8      2.729      7.514
REMARK  1 active torsions:
REMARK  status: ('A' for Active; 'I' for Inactive)
REMARK    1  A    between atoms: C8_9  and  O2_10 
ROOT
ATOM      1  C1   11 d          -5.946 208.874 119.300  0.00  0.00     0.037 C 
ATOM      2  C2   11 d          -5.883 207.374 119.153  0.00  0.00     0.160 C 
ATOM      3  O1   11 d          -4.782 206.815 118.924  0.00  0.00    -0.293 OA
ATOM      4  C3   11 d          -7.084 206.493 119.401  0.00  0.00     0.093 C 
ATOM      5  C4   11 d          -8.359 207.314 119.669  0.00  0.00     0.031 C 
ATOM      6  C5   11 d          -9.062 207.872 118.429  0.00  0.00    -0.053 A 
ATOM      7  C6   11 d         -10.398 208.315 118.550  0.00  0.00     0.010 A 
ATOM      8  C7   11 d         -11.113 208.768 117.428  0.00  0.00     0.037 A 
ATOM      9  C8   11 d         -10.511 208.778 116.162  0.00  0.00     0.068 A 
ATOM     10  C10  11 d          -9.208 208.286 116.015  0.00  0.00     0.037 A 
ATOM     11  C11  11 d          -8.487 207.849 117.133  0.00  0.00     0.010 A 
ATOM     12  C12  11 d          -8.002 208.415 120.690  0.00  0.00     0.067 C 
ATOM     13  C13  11 d          -6.857 209.319 120.241  0.00  0.00     0.022 C 
ATOM     14  N1   11 d          -6.875 210.588 120.822  0.00  0.00    -0.357 N 
ATOM     15  C14  11 d          -5.723 211.274 121.145  0.00  0.00     0.059 A 
ATOM     16  C15  11 d          -4.746 211.522 120.169  0.00  0.00     0.055 A 
ATOM     17  C16  11 d          -3.575 212.225 120.501  0.00  0.00     0.031 A 
ATOM     18  C17  11 d          -3.374 212.668 121.817  0.00  0.00     0.002 A 
ATOM     19  C18  11 d          -4.350 212.427 122.795  0.00  0.00     0.002 A 
ATOM     20  C19  11 d          -5.526 211.737 122.458  0.00  0.00     0.032 A 
ATOM     21  N2   11 d          -5.000 211.152 118.872  0.00  0.00    -0.375 N 
ATOM     22  C20  11 d          -4.993 209.783 118.465  0.00  0.00     0.155 C 
ATOM     23  C21  11 d          -5.300 209.612 116.952  0.00  0.00    -0.013 A 
ATOM     24  C22  11 d          -4.977 208.402 116.290  0.00  0.00     0.125 A 
ATOM     25  N3   11 d          -5.258 208.209 114.970  0.00  0.00    -0.272 NA
ATOM     26  C23  11 d          -5.854 209.164 114.211  0.00  0.00     0.116 A 
ATOM     27  C24  11 d          -6.180 210.393 114.784  0.00  0.00     0.020 A 
ATOM     28  C25  11 d          -5.900 210.616 116.139  0.00  0.00     0.012 A 
ATOM     29  H13  11 d          -7.745 211.019 121.038  0.00  0.00     0.166 HD
ATOM     30  H18  11 d          -5.178 211.902 118.255  0.00  0.00     0.160 HD
ENDROOT
BRANCH   9  31
ATOM     31  O2   11 d         -11.271 209.144 115.019  0.00  0.00    -0.356 OA
ATOM     32  C9   11 d         -12.514 208.398 114.999  0.00  0.00     0.210 C 
ENDBRANCH   9  31
TORSDOF 1
ENDMDL
MODEL 8
REMARK VINA RESULT:      -6.8      2.531      5.185
REMARK  1 active torsions:
REMARK  status: ('A' for Active; 'I' for Inactive)
REMARK    1  A    between atoms: C8_9  and  O2_10 
ROOT
ATOM      1  C1   11 d          -5.977 208.671 117.515  0.00  0.00     0.037 C 
ATOM      2  C2   11 d          -5.398 209.451 118.670  0.00  0.00     0.160 C 
ATOM      3  O1   11 d          -4.494 210.297 118.460  0.00  0.00    -0.293 OA
ATOM      4  C3   11 d          -5.957 209.348 120.068  0.00  0.00     0.093 C 
ATOM      5  C4   11 d          -7.057 208.274 120.174  0.00  0.00     0.031 C 
ATOM      6  C5   11 d          -6.563 206.830 120.298  0.00  0.00    -0.053 A 
ATOM      7  C6   11 d          -7.465 205.843 120.754  0.00  0.00     0.010 A 
ATOM      8  C7   11 d          -7.045 204.517 120.954  0.00  0.00     0.037 A 
ATOM      9  C8   11 d          -5.712 204.153 120.713  0.00  0.00     0.068 A 
ATOM     10  C10  11 d          -4.792 205.132 120.318  0.00  0.00     0.037 A 
ATOM     11  C11  11 d          -5.211 206.451 120.103  0.00  0.00     0.010 A 
ATOM     12  C12  11 d          -8.019 208.469 118.985  0.00  0.00     0.067 C 
ATOM     13  C13  11 d          -7.331 208.410 117.623  0.00  0.00     0.022 C 
ATOM     14  N1   11 d          -8.174 208.032 116.577  0.00  0.00    -0.357 N 
ATOM     15  C14  11 d          -8.048 208.539 115.301  0.00  0.00     0.059 A 
ATOM     16  C15  11 d          -6.829 208.438 114.613  0.00  0.00     0.055 A 
ATOM     17  C16  11 d          -6.706 208.953 113.311  0.00  0.00     0.031 A 
ATOM     18  C17  11 d          -7.800 209.585 112.700  0.00  0.00     0.002 A 
ATOM     19  C18  11 d          -9.022 209.683 113.382  0.00  0.00     0.002 A 
ATOM     20  C19  11 d          -9.148 209.155 114.677  0.00  0.00     0.032 A 
ATOM     21  N2   11 d          -5.798 207.746 115.196  0.00  0.00    -0.375 N 
ATOM     22  C20  11 d          -5.073 208.272 116.309  0.00  0.00     0.155 C 
ATOM     23  C21  11 d          -3.949 207.314 116.791  0.00  0.00    -0.013 A 
ATOM     24  C22  11 d          -2.903 207.798 117.614  0.00  0.00     0.125 A 
ATOM     25  N3   11 d          -1.916 206.979 118.077  0.00  0.00    -0.272 NA
ATOM     26  C23  11 d          -1.873 205.657 117.772  0.00  0.00     0.116 A 
ATOM     27  C24  11 d          -2.854 205.109 116.946  0.00  0.00     0.020 A 
ATOM     28  C25  11 d          -3.878 205.931 116.456  0.00  0.00     0.012 A 
ATOM     29  H13  11 d          -8.914 207.389 116.747  0.00  0.00     0.166 HD
ATOM     30  H18  11 d          -5.600 206.872 114.782  0.00  0.00     0.160 HD
ENDROOT
BRANCH   9  31
ATOM     31  O2   11 d          -5.272 202.836 121.011  0.00  0.00    -0.356 OA
ATOM     32  C9   11 d          -3.823 202.804 121.057  0.00  0.00     0.210 C 
ENDBRANCH   9  31
TORSDOF 1
ENDMDL
MODEL 9
REMARK VINA RESULT:      -6.8      1.574      2.214
REMARK  1 active torsions:
REMARK  status: ('A' for Active; 'I' for Inactive)
REMARK    1  A    between atoms: C8_9  and  O2_10 
ROOT
ATOM      1  C1   11 d          -4.737 208.442 117.735  0.00  0.00     0.037 C 
ATOM      2  C2   11 d          -4.429 207.362 118.742  0.00  0.00     0.160 C 
ATOM      3  O1   11 d          -5.366 206.704 119.258  0.00  0.00    -0.293 OA
ATOM      4  C3   11 d          -3.014 206.946 119.064  0.00  0.00     0.093 C 
ATOM      5  C4   11 d          -1.973 207.838 118.361  0.00  0.00     0.031 C 
ATOM      6  C5   11 d          -1.697 209.187 119.030  0.00  0.00    -0.053 A 
ATOM      7  C6   11 d          -0.527 209.894 118.670  0.00  0.00     0.010 A 
ATOM      8  C7   11 d          -0.189 211.101 119.305  0.00  0.00     0.037 A 
ATOM      9  C8   11 d          -1.005 211.620 120.320  0.00  0.00     0.068 A 
ATOM     10  C10  11 d          -2.136 210.901 120.729  0.00  0.00     0.037 A 
ATOM     11  C11  11 d          -2.484 209.706 120.088  0.00  0.00     0.010 A 
ATOM     12  C12  11 d          -2.403 207.988 116.887  0.00  0.00     0.067 C 
ATOM     13  C13  11 d          -3.811 208.553 116.714  0.00  0.00     0.022 C 
ATOM     14  N1   11 d          -4.016 209.199 115.494  0.00  0.00    -0.357 N 
ATOM     15  C14  11 d          -5.223 209.164 114.827  0.00  0.00     0.059 A 
ATOM     16  C15  11 d          -6.401 209.580 115.467  0.00  0.00     0.055 A 
ATOM     17  C16  11 d          -7.628 209.546 114.783  0.00  0.00     0.031 A 
ATOM     18  C17  11 d          -7.681 209.080 113.461  0.00  0.00     0.002 A 
ATOM     19  C18  11 d          -6.505 208.669 112.815  0.00  0.00     0.002 A 
ATOM     20  C19  11 d          -5.277 208.717 113.495  0.00  0.00     0.032 A 
ATOM     21  N2   11 d          -6.314 210.107 116.731  0.00  0.00    -0.375 N 
ATOM     22  C20  11 d          -6.039 209.290 117.870  0.00  0.00     0.155 C 
ATOM     23  C21  11 d          -5.997 210.107 119.190  0.00  0.00    -0.013 A 
ATOM     24  C22  11 d          -6.111 209.451 120.440  0.00  0.00     0.125 A 
ATOM     25  N3   11 d          -6.050 210.135 121.618  0.00  0.00    -0.272 NA
ATOM     26  C23  11 d          -5.886 211.482 121.664  0.00  0.00     0.116 A 
ATOM     27  C24  11 d          -5.791 212.203 120.474  0.00  0.00     0.020 A 
ATOM     28  C25  11 d          -5.852 211.523 119.250  0.00  0.00     0.012 A 
ATOM     29  H13  11 d          -3.266 209.692 115.064  0.00  0.00     0.166 HD
ATOM     30  H18  11 d          -6.463 211.082 116.783  0.00  0.00     0.160 HD
ENDROOT
BRANCH   9  31
ATOM     31  O2   11 d          -0.605 212.787 121.024  0.00  0.00    -0.356 OA
ATOM     32  C9   11 d          -1.556 213.070 122.081  0.00  0.00     0.210 C 
ENDBRANCH   9  31
TORSDOF 1
ENDMDL
MODEL 10
REMARK VINA RESULT:      -6.6      2.756      5.893
REMARK  1 active torsions:
REMARK  status: ('A' for Active; 'I' for Inactive)
REMARK    1  A    between atoms: C8_9  and  O2_10 
ROOT
ATOM      1  C1   11 d          -6.063 208.870 118.041  0.00  0.00     0.037 C 
ATOM      2  C2   11 d          -7.201 208.294 117.236  0.00  0.00     0.160 C 
ATOM      3  O1   11 d          -8.037 207.537 117.791  0.00  0.00    -0.293 OA
ATOM      4  C3   11 d          -7.455 208.696 115.803  0.00  0.00     0.093 C 
ATOM      5  C4   11 d          -6.353 209.624 115.258  0.00  0.00     0.031 C 
ATOM      6  C5   11 d          -5.067 208.929 114.804  0.00  0.00    -0.053 A 
ATOM      7  C6   11 d          -4.170 209.641 113.976  0.00  0.00     0.010 A 
ATOM      8  C7   11 d          -3.010 209.027 113.472  0.00  0.00     0.037 A 
ATOM      9  C8   11 d          -2.730 207.687 113.775  0.00  0.00     0.068 A 
ATOM     10  C10  11 d          -3.640 206.950 114.545  0.00  0.00     0.037 A 
ATOM     11  C11  11 d          -4.788 207.564 115.062  0.00  0.00     0.010 A 
ATOM     12  C12  11 d          -6.092 210.714 116.318  0.00  0.00     0.067 C 
ATOM     13  C13  11 d          -5.708 210.159 117.687  0.00  0.00     0.022 C 
ATOM     14  N1   11 d          -4.956 211.041 118.466  0.00  0.00    -0.357 N 
ATOM     15  C14  11 d          -5.078 211.109 119.838  0.00  0.00     0.059 A 
ATOM     16  C15  11 d          -4.905 209.960 120.625  0.00  0.00     0.055 A 
ATOM     17  C16  11 d          -5.026 210.034 122.024  0.00  0.00     0.031 A 
ATOM     18  C17  11 d          -5.336 211.258 122.636  0.00  0.00     0.002 A 
ATOM     19  C18  11 d          -5.504 212.410 121.854  0.00  0.00     0.002 A 
ATOM     20  C19  11 d          -5.369 212.337 120.458  0.00  0.00     0.032 A 
ATOM     21  N2   11 d          -4.523 208.793 120.013  0.00  0.00    -0.375 N 
ATOM     22  C20  11 d          -5.422 208.042 119.196  0.00  0.00     0.155 C 
ATOM     23  C21  11 d          -4.768 206.757 118.619  0.00  0.00    -0.013 A 
ATOM     24  C22  11 d          -5.576 205.711 118.109  0.00  0.00     0.125 A 
ATOM     25  N3   11 d          -5.033 204.582 117.570  0.00  0.00    -0.272 NA
ATOM     26  C23  11 d          -3.691 204.390 117.497  0.00  0.00     0.116 A 
ATOM     27  C24  11 d          -2.829 205.363 118.001  0.00  0.00     0.020 A 
ATOM     28  C25  11 d          -3.362 206.532 118.561  0.00  0.00     0.012 A 
ATOM     29  H13  11 d          -4.320 211.667 118.028  0.00  0.00     0.166 HD
ATOM     30  H18  11 d          -3.591 208.519 120.190  0.00  0.00     0.160 HD
ENDROOT
BRANCH   9  31
ATOM     31  O2   11 d          -1.611 207.045 113.182  0.00  0.00    -0.356 OA
ATOM     32  C9   11 d          -0.820 208.017 112.453  0.00  0.00     0.210 C 
ENDBRANCH   9  31
TORSDOF 1
ENDMDL
