MODEL 1
REMARK VINA RESULT:      -6.2      0.000      0.000
REMARK  3 active torsions:
REMARK  status: ('A' for Active; 'I' for Inactive)
REMARK    1  A    between atoms: C2_3  and  N2_9 
REMARK    2  A    between atoms: N2_9  and  C8_10 
REMARK    3  A    between atoms: C8_10  and  C9_11 
ROOT
ATOM      1  N1   11 d           3.270  45.945  53.404  0.00  0.00    -0.069 N 
ATOM      2  C1   11 d           3.710  47.113  54.264  0.00  0.00     0.268 C 
ATOM      3  C2   11 d           5.132  46.873  54.896  0.00  0.00     0.215 C 
ATOM      4  C3   11 d           5.700  45.550  54.281  0.00  0.00     0.021 C 
ATOM      5  C4   11 d           5.675  45.613  52.731  0.00  0.00     0.034 C 
ATOM      6  C5   11 d           4.217  45.819  52.236  0.00  0.00     0.235 C 
ATOM      7  C6   11 d           4.764  44.386  54.704  0.00  0.00     0.034 C 
ATOM      8  C7   11 d           3.317  44.673  54.217  0.00  0.00     0.235 C 
ATOM      9  H1   11 d           2.267  46.103  53.042  0.00  0.00     0.280 HD
ENDROOT
BRANCH   3  10
ATOM     10  N2   11 d           6.048  48.075  54.801  0.00  0.00    -0.067 N 
ATOM     11  H14  11 d           6.278  48.290  53.775  0.00  0.00     0.277 HD
ATOM     12  H15  11 d           5.530  48.938  55.180  0.00  0.00     0.277 HD
BRANCH  10  13
ATOM     13  C8   11 d           7.330  47.946  55.572  0.00  0.00     0.264 C 
BRANCH  13  14
ATOM     14  C9   11 d           8.542  48.323  54.705  0.00  0.00     0.147 C 
ATOM     15  O1   11 d           8.057  48.537  53.360  0.00  0.00    -0.384 OA
ATOM     16  C10  11 d           8.804  47.645  52.496  0.00  0.00     0.168 C 
ATOM     17  C11  11 d           9.328  46.520  53.367  0.00  0.00     0.029 C 
ATOM     18  C12  11 d           9.631  47.249  54.654  0.00  0.00     0.036 C 
ENDBRANCH  13  14
ENDBRANCH  10  13
ENDBRANCH   3  10
TORSDOF 3
ENDMDL
MODEL 2
REMARK VINA RESULT:      -6.2      2.620      4.942
REMARK  3 active torsions:
REMARK  status: ('A' for Active; 'I' for Inactive)
REMARK    1  A    between atoms: C2_3  and  N2_9 
REMARK    2  A    between atoms: N2_9  and  C8_10 
REMARK    3  A    between atoms: C8_10  and  C9_11 
ROOT
ATOM      1  N1   11 d           9.206  46.481  54.176  0.00  0.00    -0.069 N 
ATOM      2  C1   11 d           7.804  45.918  54.298  0.00  0.00     0.268 C 
ATOM      3  C2   11 d           6.706  47.018  54.048  0.00  0.00     0.215 C 
ATOM      4  C3   11 d           7.445  48.319  53.588  0.00  0.00     0.021 C 
ATOM      5  C4   11 d           8.363  48.025  52.372  0.00  0.00     0.034 C 
ATOM      6  C5   11 d           9.418  46.952  52.758  0.00  0.00     0.235 C 
ATOM      7  C6   11 d           8.363  48.785  54.749  0.00  0.00     0.034 C 
ATOM      8  C7   11 d           9.362  47.654  55.114  0.00  0.00     0.235 C 
ATOM      9  H1   11 d           9.936  45.726  54.421  0.00  0.00     0.280 HD
ENDROOT
BRANCH   3  10
ATOM     10  N2   11 d           5.581  46.558  53.145  0.00  0.00    -0.067 N 
ATOM     11  H14  11 d           4.631  46.813  53.573  0.00  0.00     0.277 HD
ATOM     12  H15  11 d           5.645  47.090  52.213  0.00  0.00     0.277 HD
BRANCH  10  13
ATOM     13  C8   11 d           5.595  45.090  52.829  0.00  0.00     0.264 C 
BRANCH  13  14
ATOM     14  C9   11 d           5.604  44.848  51.311  0.00  0.00     0.147 C 
ATOM     15  O1   11 d           5.173  43.485  51.091  0.00  0.00    -0.384 OA
ATOM     16  C10  11 d           6.220  42.830  50.334  0.00  0.00     0.168 C 
ATOM     17  C11  11 d           7.497  43.610  50.576  0.00  0.00     0.029 C 
ATOM     18  C12  11 d           6.977  45.025  50.660  0.00  0.00     0.036 C 
ENDBRANCH  13  14
ENDBRANCH  10  13
ENDBRANCH   3  10
TORSDOF 3
ENDMDL
MODEL 3
REMARK VINA RESULT:      -6.0      2.277      5.076
REMARK  3 active torsions:
REMARK  status: ('A' for Active; 'I' for Inactive)
REMARK    1  A    between atoms: C2_3  and  N2_9 
REMARK    2  A    between atoms: N2_9  and  C8_10 
REMARK    3  A    between atoms: C8_10  and  C9_11 
ROOT
ATOM      1  N1   11 d           8.858  46.576  52.882  0.00  0.00    -0.069 N 
ATOM      2  C1   11 d           7.544  45.996  53.367  0.00  0.00     0.268 C 
ATOM      3  C2   11 d           6.848  46.927  54.429  0.00  0.00     0.215 C 
ATOM      4  C3   11 d           7.685  48.248  54.512  0.00  0.00     0.021 C 
ATOM      5  C4   11 d           7.854  48.877  53.104  0.00  0.00     0.034 C 
ATOM      6  C5   11 d           8.580  47.875  52.165  0.00  0.00     0.235 C 
ATOM      7  C6   11 d           9.104  47.884  55.022  0.00  0.00     0.034 C 
ATOM      8  C7   11 d           9.756  46.849  54.065  0.00  0.00     0.235 C 
ATOM      9  H1   11 d           9.346  45.889  52.211  0.00  0.00     0.280 HD
ENDROOT
BRANCH   3  10
ATOM     10  N2   11 d           5.364  47.114  54.192  0.00  0.00    -0.067 N 
ATOM     11  H14  11 d           5.050  48.082  54.534  0.00  0.00     0.277 HD
ATOM     12  H15  11 d           5.176  47.093  53.134  0.00  0.00     0.277 HD
BRANCH  10  13
ATOM     13  C8   11 d           4.493  46.067  54.824  0.00  0.00     0.264 C 
BRANCH  13  14
ATOM     14  C9   11 d           3.490  45.492  53.813  0.00  0.00     0.147 C 
ATOM     15  O1   11 d           3.296  44.098  54.144  0.00  0.00    -0.384 OA
ATOM     16  C10  11 d           3.619  43.334  52.956  0.00  0.00     0.168 C 
ATOM     17  C11  11 d           4.523  44.201  52.103  0.00  0.00     0.029 C 
ATOM     18  C12  11 d           3.953  45.577  52.357  0.00  0.00     0.036 C 
ENDBRANCH  13  14
ENDBRANCH  10  13
ENDBRANCH   3  10
TORSDOF 3
ENDMDL
MODEL 4
REMARK VINA RESULT:      -5.7      2.563      5.648
REMARK  3 active torsions:
REMARK  status: ('A' for Active; 'I' for Inactive)
REMARK    1  A    between atoms: C2_3  and  N2_9 
REMARK    2  A    between atoms: N2_9  and  C8_10 
REMARK    3  A    between atoms: C8_10  and  C9_11 
ROOT
ATOM      1  N1   11 d           8.296  47.196  54.857  0.00  0.00    -0.069 N 
ATOM      2  C1   11 d           7.209  46.278  54.332  0.00  0.00     0.268 C 
ATOM      3  C2   11 d           7.076  46.361  52.766  0.00  0.00     0.215 C 
ATOM      4  C3   11 d           8.246  47.263  52.245  0.00  0.00     0.021 C 
ATOM      5  C4   11 d           9.612  46.736  52.758  0.00  0.00     0.034 C 
ATOM      6  C5   11 d           9.625  46.735  54.312  0.00  0.00     0.235 C 
ATOM      7  C6   11 d           8.054  48.684  52.838  0.00  0.00     0.034 C 
ATOM      8  C7   11 d           8.033  48.608  54.389  0.00  0.00     0.235 C 
ATOM      9  H1   11 d           8.318  47.174  55.934  0.00  0.00     0.280 HD
ENDROOT
BRANCH   3  10
ATOM     10  N2   11 d           6.954  45.009  52.095  0.00  0.00    -0.067 N 
ATOM     11  H14  11 d           7.706  44.898  51.338  0.00  0.00     0.277 HD
ATOM     12  H15  11 d           7.144  44.242  52.824  0.00  0.00     0.277 HD
BRANCH  10  13
ATOM     13  C8   11 d           5.608  44.732  51.490  0.00  0.00     0.264 C 
BRANCH  13  14
ATOM     14  C9   11 d           4.572  44.381  52.570  0.00  0.00     0.147 C 
ATOM     15  O1   11 d           4.179  43.006  52.358  0.00  0.00    -0.384 OA
ATOM     16  C10  11 d           2.739  43.001  52.196  0.00  0.00     0.168 C 
ATOM     17  C11  11 d           2.336  44.395  51.760  0.00  0.00     0.029 C 
ATOM     18  C12  11 d           3.313  45.249  52.533  0.00  0.00     0.036 C 
ENDBRANCH  13  14
ENDBRANCH  10  13
ENDBRANCH   3  10
TORSDOF 3
ENDMDL
MODEL 5
REMARK VINA RESULT:      -5.7      1.550      2.817
REMARK  3 active torsions:
REMARK  status: ('A' for Active; 'I' for Inactive)
REMARK    1  A    between atoms: C2_3  and  N2_9 
REMARK    2  A    between atoms: N2_9  and  C8_10 
REMARK    3  A    between atoms: C8_10  and  C9_11 
ROOT
ATOM      1  N1   11 d           3.482  45.115  55.313  0.00  0.00    -0.069 N 
ATOM      2  C1   11 d           4.324  44.587  54.167  0.00  0.00     0.268 C 
ATOM      3  C2   11 d           5.233  45.709  53.541  0.00  0.00     0.215 C 
ATOM      4  C3   11 d           5.082  46.986  54.435  0.00  0.00     0.021 C 
ATOM      5  C4   11 d           5.384  46.652  55.920  0.00  0.00     0.034 C 
ATOM      6  C5   11 d           4.401  45.560  56.424  0.00  0.00     0.235 C 
ATOM      7  C6   11 d           3.601  47.447  54.364  0.00  0.00     0.034 C 
ATOM      8  C7   11 d           2.671  46.297  54.840  0.00  0.00     0.235 C 
ATOM      9  H1   11 d           2.819  44.347  55.676  0.00  0.00     0.280 HD
ENDROOT
BRANCH   3  10
ATOM     10  N2   11 d           6.657  45.263  53.286  0.00  0.00    -0.067 N 
ATOM     11  H14  11 d           7.272  45.470  54.141  0.00  0.00     0.277 HD
ATOM     12  H15  11 d           6.669  44.196  53.157  0.00  0.00     0.277 HD
BRANCH  10  13
ATOM     13  C8   11 d           7.294  45.870  52.069  0.00  0.00     0.264 C 
BRANCH  13  14
ATOM     14  C9   11 d           8.532  46.700  52.444  0.00  0.00     0.147 C 
ATOM     15  O1   11 d           8.756  46.522  53.861  0.00  0.00    -0.384 OA
ATOM     16  C10  11 d           8.754  47.843  54.456  0.00  0.00     0.168 C 
ATOM     17  C11  11 d           7.991  48.753  53.515  0.00  0.00     0.029 C 
ATOM     18  C12  11 d           8.386  48.198  52.168  0.00  0.00     0.036 C 
ENDBRANCH  13  14
ENDBRANCH  10  13
ENDBRANCH   3  10
TORSDOF 3
ENDMDL
MODEL 6
REMARK VINA RESULT:      -5.6      2.280      5.178
REMARK  3 active torsions:
REMARK  status: ('A' for Active; 'I' for Inactive)
REMARK    1  A    between atoms: C2_3  and  N2_9 
REMARK    2  A    between atoms: N2_9  and  C8_10 
REMARK    3  A    between atoms: C8_10  and  C9_11 
ROOT
ATOM      1  N1   11 d           7.610  48.614  54.245  0.00  0.00    -0.069 N 
ATOM      2  C1   11 d           6.458  47.647  54.050  0.00  0.00     0.268 C 
ATOM      3  C2   11 d           6.825  46.493  53.044  0.00  0.00     0.215 C 
ATOM      4  C3   11 d           8.345  46.640  52.697  0.00  0.00     0.021 C 
ATOM      5  C4   11 d           9.199  46.675  53.991  0.00  0.00     0.034 C 
ATOM      6  C5   11 d           8.763  47.873  54.878  0.00  0.00     0.235 C 
ATOM      7  C6   11 d           8.543  48.005  51.984  0.00  0.00     0.034 C 
ATOM      8  C7   11 d           8.048  49.154  52.904  0.00  0.00     0.235 C 
ATOM      9  H1   11 d           7.310  49.431  54.880  0.00  0.00     0.280 HD
ENDROOT
BRANCH   3  10
ATOM     10  N2   11 d           6.399  45.119  53.516  0.00  0.00    -0.067 N 
ATOM     11  H14  11 d           6.968  44.359  53.016  0.00  0.00     0.277 HD
ATOM     12  H15  11 d           6.628  45.025  54.563  0.00  0.00     0.277 HD
BRANCH  10  13
ATOM     13  C8   11 d           4.936  44.825  53.347  0.00  0.00     0.264 C 
BRANCH  13  14
ATOM     14  C9   11 d           4.333  44.237  54.632  0.00  0.00     0.147 C 
ATOM     15  O1   11 d           2.980  44.734  54.737  0.00  0.00    -0.384 OA
ATOM     16  C10  11 d           2.875  45.402  56.019  0.00  0.00     0.168 C 
ATOM     17  C11  11 d           4.280  45.791  56.433  0.00  0.00     0.029 C 
ATOM     18  C12  11 d           5.084  44.625  55.907  0.00  0.00     0.036 C 
ENDBRANCH  13  14
ENDBRANCH  10  13
ENDBRANCH   3  10
TORSDOF 3
ENDMDL
MODEL 7
REMARK VINA RESULT:      -5.5      1.552      2.315
REMARK  3 active torsions:
REMARK  status: ('A' for Active; 'I' for Inactive)
REMARK    1  A    between atoms: C2_3  and  N2_9 
REMARK    2  A    between atoms: N2_9  and  C8_10 
REMARK    3  A    between atoms: C8_10  and  C9_11 
ROOT
ATOM      1  N1   11 d           2.970  46.278  56.575  0.00  0.00    -0.069 N 
ATOM      2  C1   11 d           4.424  46.052  56.206  0.00  0.00     0.268 C 
ATOM      3  C2   11 d           4.600  45.757  54.670  0.00  0.00     0.215 C 
ATOM      4  C3   11 d           3.203  45.960  53.992  0.00  0.00     0.021 C 
ATOM      5  C4   11 d           2.632  47.363  54.326  0.00  0.00     0.034 C 
ATOM      6  C5   11 d           2.476  47.514  55.865  0.00  0.00     0.235 C 
ATOM      7  C6   11 d           2.225  44.915  54.591  0.00  0.00     0.034 C 
ATOM      8  C7   11 d           2.147  45.092  56.132  0.00  0.00     0.235 C 
ATOM      9  H1   11 d           2.869  46.406  57.641  0.00  0.00     0.280 HD
ENDROOT
BRANCH   3  10
ATOM     10  N2   11 d           5.745  46.518  54.035  0.00  0.00    -0.067 N 
ATOM     11  H14  11 d           6.505  45.838  53.700  0.00  0.00     0.277 HD
ATOM     12  H15  11 d           5.383  47.020  53.156  0.00  0.00     0.277 HD
BRANCH  10  13
ATOM     13  C8   11 d           6.373  47.555  54.920  0.00  0.00     0.264 C 
BRANCH  13  14
ATOM     14  C9   11 d           7.566  48.231  54.226  0.00  0.00     0.147 C 
ATOM     15  O1   11 d           7.788  47.535  52.979  0.00  0.00    -0.384 OA
ATOM     16  C10  11 d           9.162  47.073  52.993  0.00  0.00     0.168 C 
ATOM     17  C11  11 d           9.591  47.002  54.445  0.00  0.00     0.029 C 
ATOM     18  C12  11 d           8.864  48.187  55.035  0.00  0.00     0.036 C 
ENDBRANCH  13  14
ENDBRANCH  10  13
ENDBRANCH   3  10
TORSDOF 3
ENDMDL
MODEL 8
REMARK VINA RESULT:      -5.4      1.912      2.978
REMARK  3 active torsions:
REMARK  status: ('A' for Active; 'I' for Inactive)
REMARK    1  A    between atoms: C2_3  and  N2_9 
REMARK    2  A    between atoms: N2_9  and  C8_10 
REMARK    3  A    between atoms: C8_10  and  C9_11 
ROOT
ATOM      1  N1   11 d           3.492  43.275  52.186  0.00  0.00    -0.069 N 
ATOM      2  C1   11 d           4.801  43.563  51.477  0.00  0.00     0.268 C 
ATOM      3  C2   11 d           5.349  45.000  51.816  0.00  0.00     0.215 C 
ATOM      4  C3   11 d           4.422  45.603  52.925  0.00  0.00     0.021 C 
ATOM      5  C4   11 d           4.321  44.639  54.136  0.00  0.00     0.034 C 
ATOM      6  C5   11 d           3.738  43.275  53.675  0.00  0.00     0.235 C 
ATOM      7  C6   11 d           2.995  45.742  52.332  0.00  0.00     0.034 C 
ATOM      8  C7   11 d           2.489  44.353  51.852  0.00  0.00     0.235 C 
ATOM      9  H1   11 d           3.104  42.317  51.882  0.00  0.00     0.280 HD
ENDROOT
BRANCH   3  10
ATOM     10  N2   11 d           6.831  45.025  52.127  0.00  0.00    -0.067 N 
ATOM     11  H14  11 d           7.079  44.251  52.828  0.00  0.00     0.277 HD
ATOM     12  H15  11 d           7.378  44.804  51.228  0.00  0.00     0.277 HD
BRANCH  10  13
ATOM     13  C8   11 d           7.337  46.338  52.650  0.00  0.00     0.264 C 
BRANCH  13  14
ATOM     14  C9   11 d           7.792  46.217  54.113  0.00  0.00     0.147 C 
ATOM     15  O1   11 d           6.914  47.046  54.907  0.00  0.00    -0.384 OA
ATOM     16  C10  11 d           7.755  47.984  55.624  0.00  0.00     0.168 C 
ATOM     17  C11  11 d           9.056  48.089  54.856  0.00  0.00     0.029 C 
ATOM     18  C12  11 d           9.231  46.674  54.358  0.00  0.00     0.036 C 
ENDBRANCH  13  14
ENDBRANCH  10  13
ENDBRANCH   3  10
TORSDOF 3
ENDMDL
MODEL 9
REMARK VINA RESULT:      -5.4      1.010      2.028
REMARK  3 active torsions:
REMARK  status: ('A' for Active; 'I' for Inactive)
REMARK    1  A    between atoms: C2_3  and  N2_9 
REMARK    2  A    between atoms: N2_9  and  C8_10 
REMARK    3  A    between atoms: C8_10  and  C9_11 
ROOT
ATOM      1  N1   11 d           3.210  45.340  53.787  0.00  0.00    -0.069 N 
ATOM      2  C1   11 d           4.678  45.592  53.504  0.00  0.00     0.268 C 
ATOM      3  C2   11 d           5.209  46.872  54.252  0.00  0.00     0.215 C 
ATOM      4  C3   11 d           4.059  47.376  55.188  0.00  0.00     0.021 C 
ATOM      5  C4   11 d           3.570  46.233  56.116  0.00  0.00     0.034 C 
ATOM      6  C5   11 d           3.044  45.049  55.259  0.00  0.00     0.235 C 
ATOM      7  C6   11 d           2.858  47.783  54.295  0.00  0.00     0.034 C 
ATOM      8  C7   11 d           2.409  46.570  53.434  0.00  0.00     0.235 C 
ATOM      9  H1   11 d           2.856  44.502  53.209  0.00  0.00     0.280 HD
ENDROOT
BRANCH   3  10
ATOM     10  N2   11 d           6.550  46.668  54.925  0.00  0.00    -0.067 N 
ATOM     11  H14  11 d           6.472  45.926  55.696  0.00  0.00     0.277 HD
ATOM     12  H15  11 d           7.245  46.280  54.203  0.00  0.00     0.277 HD
BRANCH  10  13
ATOM     13  C8   11 d           7.153  47.915  55.506  0.00  0.00     0.264 C 
BRANCH  13  14
ATOM     14  C9   11 d           8.392  48.357  54.712  0.00  0.00     0.147 C 
ATOM     15  O1   11 d           7.973  48.572  53.346  0.00  0.00    -0.384 OA
ATOM     16  C10  11 d           8.804  47.726  52.513  0.00  0.00     0.168 C 
ATOM     17  C11  11 d           9.328  46.611  53.395  0.00  0.00     0.029 C 
ATOM     18  C12  11 d           9.528  47.331  54.707  0.00  0.00     0.036 C 
ENDBRANCH  13  14
ENDBRANCH  10  13
ENDBRANCH   3  10
TORSDOF 3
ENDMDL
MODEL 10
REMARK VINA RESULT:      -5.3      1.662      2.381
REMARK  3 active torsions:
REMARK  status: ('A' for Active; 'I' for Inactive)
REMARK    1  A    between atoms: C2_3  and  N2_9 
REMARK    2  A    between atoms: N2_9  and  C8_10 
REMARK    3  A    between atoms: C8_10  and  C9_11 
ROOT
ATOM      1  N1   11 d           2.490  46.413  54.858  0.00  0.00    -0.069 N 
ATOM      2  C1   11 d           3.578  47.090  54.047  0.00  0.00     0.268 C 
ATOM      3  C2   11 d           4.906  46.245  54.026  0.00  0.00     0.215 C 
ATOM      4  C3   11 d           4.603  44.880  54.730  0.00  0.00     0.021 C 
ATOM      5  C4   11 d           3.378  44.188  54.076  0.00  0.00     0.034 C 
ATOM      6  C5   11 d           2.131  45.107  54.192  0.00  0.00     0.235 C 
ATOM      7  C6   11 d           4.224  45.176  56.205  0.00  0.00     0.034 C 
ATOM      8  C7   11 d           3.001  46.132  56.251  0.00  0.00     0.235 C 
ATOM      9  H1   11 d           1.618  47.043  54.916  0.00  0.00     0.280 HD
ENDROOT
BRANCH   3  10
ATOM     10  N2   11 d           5.535  46.140  52.653  0.00  0.00    -0.067 N 
ATOM     11  H14  11 d           4.893  45.592  51.989  0.00  0.00     0.277 HD
ATOM     12  H15  11 d           5.628  47.126  52.236  0.00  0.00     0.277 HD
BRANCH  10  13
ATOM     13  C8   11 d           6.900  45.514  52.637  0.00  0.00     0.264 C 
BRANCH  13  14
ATOM     14  C9   11 d           7.979  46.540  52.255  0.00  0.00     0.147 C 
ATOM     15  O1   11 d           9.170  45.799  51.903  0.00  0.00    -0.384 OA
ATOM     16  C10  11 d          10.234  46.283  52.760  0.00  0.00     0.168 C 
ATOM     17  C11  11 d           9.578  46.898  53.980  0.00  0.00     0.029 C 
ATOM     18  C12  11 d           8.338  47.515  53.378  0.00  0.00     0.036 C 
ENDBRANCH  13  14
ENDBRANCH  10  13
ENDBRANCH   3  10
TORSDOF 3
ENDMDL
