MODEL 1
REMARK VINA RESULT:      -6.2      0.000      0.000
REMARK  2 active torsions:
REMARK  status: ('A' for Active; 'I' for Inactive)
REMARK    1  A    between atoms: C1_1  and  C2_2 
REMARK       I    between atoms: C1_1  and  N1_10 
REMARK    2  A    between atoms: N1_10  and  C8_11 
ROOT
ATOM      1  C1   11 d          14.994  42.248  26.757  0.00  0.00     0.257 C 
ATOM      2  O1   11 d          16.159  42.204  27.290  0.00  0.00    -0.267 OA
ATOM      3  N1   11 d          13.896  41.641  27.449  0.00  0.00    -0.301 N 
ATOM      4  H5   11 d          12.907  41.654  27.042  0.00  0.00     0.171 HD
ENDROOT
BRANCH   1   5
ATOM      5  C2   11 d          14.843  42.939  25.429  0.00  0.00     0.032 A 
ATOM      6  C3   11 d          13.555  43.037  24.849  0.00  0.00     0.018 A 
ATOM      7  C4   11 d          13.363  43.670  23.612  0.00  0.00     0.020 A 
ATOM      8  C5   11 d          14.453  44.220  22.928  0.00  0.00     0.011 A 
ATOM      9 Br1   11 d          14.189  45.091  21.227  0.00  0.00    -0.051 Br
ATOM     10  C6   11 d          15.737  44.137  23.483  0.00  0.00     0.020 A 
ATOM     11  C7   11 d          15.932  43.504  24.721  0.00  0.00     0.018 A 
ENDBRANCH   1   5
BRANCH   3  12
ATOM     12  C8   11 d          14.058  40.972  28.742  0.00  0.00     0.173 A 
ATOM     13  N2   11 d          14.382  39.673  28.953  0.00  0.00    -0.236 NA
ATOM     14  C9   11 d          14.444  39.410  30.285  0.00  0.00     0.126 A 
ATOM     15  C10  11 d          14.159  40.545  31.031  0.00  0.00     0.072 A 
ATOM     16  S1   11 d          13.884  41.653  30.067  0.00  0.00    -0.062 SA
ENDBRANCH   3  12
TORSDOF 2
ENDMDL
MODEL 2
REMARK VINA RESULT:      -6.1      5.356      6.430
REMARK  2 active torsions:
REMARK  status: ('A' for Active; 'I' for Inactive)
REMARK    1  A    between atoms: C1_1  and  C2_2 
REMARK       I    between atoms: C1_1  and  N1_10 
REMARK    2  A    between atoms: N1_10  and  C8_11 
ROOT
ATOM      1  C1   11 d          10.695  45.363  25.801  0.00  0.00     0.257 C 
ATOM      2  O1   11 d          10.770  44.951  27.013  0.00  0.00    -0.267 OA
ATOM      3  N1   11 d           9.571  46.162  25.413  0.00  0.00    -0.301 N 
ATOM      4  H5   11 d           9.468  46.527  24.413  0.00  0.00     0.171 HD
ENDROOT
BRANCH   1   5
ATOM      5  C2   11 d          11.799  44.985  24.851  0.00  0.00     0.032 A 
ATOM      6  C3   11 d          12.111  45.859  23.781  0.00  0.00     0.018 A 
ATOM      7  C4   11 d          13.131  45.551  22.867  0.00  0.00     0.020 A 
ATOM      8  C5   11 d          13.861  44.363  23.003  0.00  0.00     0.011 A 
ATOM      9 Br1   11 d          15.261  43.940  21.747  0.00  0.00    -0.051 Br
ATOM     10  C6   11 d          13.570  43.485  24.055  0.00  0.00     0.020 A 
ATOM     11  C7   11 d          12.551  43.791  24.971  0.00  0.00     0.018 A 
ENDBRANCH   1   5
BRANCH   3  12
ATOM     12  C8   11 d           8.504  46.522  26.350  0.00  0.00     0.173 A 
ATOM     13  N2   11 d           7.635  45.679  26.959  0.00  0.00    -0.236 NA
ATOM     14  C9   11 d           6.786  46.373  27.762  0.00  0.00     0.126 A 
ATOM     15  C10  11 d           7.060  47.732  27.721  0.00  0.00     0.072 A 
ATOM     16  S1   11 d           8.210  47.926  26.787  0.00  0.00    -0.062 SA
ENDBRANCH   3  12
TORSDOF 2
ENDMDL
MODEL 3
REMARK VINA RESULT:      -6.1      0.875      1.607
REMARK  2 active torsions:
REMARK  status: ('A' for Active; 'I' for Inactive)
REMARK    1  A    between atoms: C1_1  and  C2_2 
REMARK       I    between atoms: C1_1  and  N1_10 
REMARK    2  A    between atoms: N1_10  and  C8_11 
ROOT
ATOM      1  C1   11 d          14.868  42.198  26.887  0.00  0.00     0.257 C 
ATOM      2  O1   11 d          16.054  42.127  27.369  0.00  0.00    -0.267 OA
ATOM      3  N1   11 d          13.780  41.666  27.652  0.00  0.00    -0.301 N 
ATOM      4  H5   11 d          12.775  41.704  27.289  0.00  0.00     0.171 HD
ENDROOT
BRANCH   1   5
ATOM      5  C2   11 d          14.684  42.842  25.540  0.00  0.00     0.032 A 
ATOM      6  C3   11 d          15.806  43.421  24.898  0.00  0.00     0.018 A 
ATOM      7  C4   11 d          15.686  44.035  23.642  0.00  0.00     0.020 A 
ATOM      8  C5   11 d          14.442  44.084  23.000  0.00  0.00     0.011 A 
ATOM      9 Br1   11 d          14.278  44.928  21.274  0.00  0.00    -0.051 Br
ATOM     10  C6   11 d          13.320  43.516  23.615  0.00  0.00     0.020 A 
ATOM     11  C7   11 d          13.437  42.900  24.872  0.00  0.00     0.018 A 
ENDBRANCH   1   5
BRANCH   3  12
ATOM     12  C8   11 d          13.975  41.043  28.963  0.00  0.00     0.173 A 
ATOM     13  N2   11 d          13.932  41.655  30.172  0.00  0.00    -0.236 NA
ATOM     14  C9   11 d          14.159  40.757  31.167  0.00  0.00     0.126 A 
ATOM     15  C10  11 d          14.365  39.485  30.652  0.00  0.00     0.072 A 
ATOM     16  S1   11 d          14.259  39.584  29.165  0.00  0.00    -0.062 SA
ENDBRANCH   3  12
TORSDOF 2
ENDMDL
MODEL 4
REMARK VINA RESULT:      -6.1      1.522      1.716
REMARK  2 active torsions:
REMARK  status: ('A' for Active; 'I' for Inactive)
REMARK    1  A    between atoms: C1_1  and  C2_2 
REMARK       I    between atoms: C1_1  and  N1_10 
REMARK    2  A    between atoms: N1_10  and  C8_11 
ROOT
ATOM      1  C1   11 d          13.961  42.910  26.538  0.00  0.00     0.257 C 
ATOM      2  O1   11 d          15.215  42.647  26.595  0.00  0.00    -0.267 OA
ATOM      3  N1   11 d          13.087  42.319  27.507  0.00  0.00    -0.301 N 
ATOM      4  H5   11 d          12.035  42.512  27.496  0.00  0.00     0.171 HD
ENDROOT
BRANCH   1   5
ATOM      5  C2   11 d          13.477  43.833  25.453  0.00  0.00     0.032 A 
ATOM      6  C3   11 d          12.273  44.552  25.651  0.00  0.00     0.018 A 
ATOM      7  C4   11 d          11.778  45.424  24.670  0.00  0.00     0.020 A 
ATOM      8  C5   11 d          12.477  45.597  23.468  0.00  0.00     0.011 A 
ATOM      9 Br1   11 d          11.797  46.795  22.119  0.00  0.00    -0.051 Br
ATOM     10  C6   11 d          13.671  44.899  23.251  0.00  0.00     0.020 A 
ATOM     11  C7   11 d          14.169  44.026  24.233  0.00  0.00     0.018 A 
ENDBRANCH   1   5
BRANCH   3  12
ATOM     12  C8   11 d          13.574  41.423  28.558  0.00  0.00     0.173 A 
ATOM     13  N2   11 d          13.897  40.113  28.428  0.00  0.00    -0.236 NA
ATOM     14  C9   11 d          14.313  39.606  29.618  0.00  0.00     0.126 A 
ATOM     15  C10  11 d          14.284  40.576  30.609  0.00  0.00     0.072 A 
ATOM     16  S1   11 d          13.795  41.840  29.981  0.00  0.00    -0.062 SA
ENDBRANCH   3  12
TORSDOF 2
ENDMDL
MODEL 5
REMARK VINA RESULT:      -5.9      1.635      1.909
REMARK  2 active torsions:
REMARK  status: ('A' for Active; 'I' for Inactive)
REMARK    1  A    between atoms: C1_1  and  C2_2 
REMARK       I    between atoms: C1_1  and  N1_10 
REMARK    2  A    between atoms: N1_10  and  C8_11 
ROOT
ATOM      1  C1   11 d          13.706  43.140  27.288  0.00  0.00     0.257 C 
ATOM      2  O1   11 d          14.530  43.597  28.157  0.00  0.00    -0.267 OA
ATOM      3  N1   11 d          12.685  42.231  27.716  0.00  0.00    -0.301 N 
ATOM      4  H5   11 d          11.977  41.826  27.025  0.00  0.00     0.171 HD
ENDROOT
BRANCH   1   5
ATOM      5  C2   11 d          13.857  43.589  25.860  0.00  0.00     0.032 A 
ATOM      6  C3   11 d          14.604  42.786  24.964  0.00  0.00     0.018 A 
ATOM      7  C4   11 d          14.775  43.162  23.623  0.00  0.00     0.020 A 
ATOM      8  C5   11 d          14.202  44.348  23.147  0.00  0.00     0.011 A 
ATOM      9 Br1   11 d          14.437  44.865  21.304  0.00  0.00    -0.051 Br
ATOM     10  C6   11 d          13.457  45.157  24.015  0.00  0.00     0.020 A 
ATOM     11  C7   11 d          13.284  44.783  25.358  0.00  0.00     0.018 A 
ENDBRANCH   1   5
BRANCH   3  12
ATOM     12  C8   11 d          12.551  41.804  29.110  0.00  0.00     0.173 A 
ATOM     13  N2   11 d          13.306  40.883  29.757  0.00  0.00    -0.236 NA
ATOM     14  C9   11 d          12.890  40.748  31.045  0.00  0.00     0.126 A 
ATOM     15  C10  11 d          11.822  41.591  31.314  0.00  0.00     0.072 A 
ATOM     16  S1   11 d          11.523  42.345  30.059  0.00  0.00    -0.062 SA
ENDBRANCH   3  12
TORSDOF 2
ENDMDL
MODEL 6
REMARK VINA RESULT:      -5.6      2.476      3.020
REMARK  2 active torsions:
REMARK  status: ('A' for Active; 'I' for Inactive)
REMARK    1  A    between atoms: C1_1  and  C2_2 
REMARK       I    between atoms: C1_1  and  N1_10 
REMARK    2  A    between atoms: N1_10  and  C8_11 
ROOT
ATOM      1  C1   11 d          12.641  42.653  27.973  0.00  0.00     0.257 C 
ATOM      2  O1   11 d          11.603  42.233  28.599  0.00  0.00    -0.267 OA
ATOM      3  N1   11 d          13.928  42.157  28.360  0.00  0.00    -0.301 N 
ATOM      4  H5   11 d          14.819  42.480  27.865  0.00  0.00     0.171 HD
ENDROOT
BRANCH   1   5
ATOM      5  C2   11 d          12.446  43.646  26.860  0.00  0.00     0.032 A 
ATOM      6  C3   11 d          13.581  44.115  26.154  0.00  0.00     0.018 A 
ATOM      7  C4   11 d          13.453  45.043  25.109  0.00  0.00     0.020 A 
ATOM      8  C5   11 d          12.188  45.521  24.745  0.00  0.00     0.011 A 
ATOM      9 Br1   11 d          12.012  46.796  23.309  0.00  0.00    -0.051 Br
ATOM     10  C6   11 d          11.051  45.070  25.428  0.00  0.00     0.020 A 
ATOM     11  C7   11 d          11.176  44.141  26.474  0.00  0.00     0.018 A 
ENDBRANCH   1   5
BRANCH   3  12
ATOM     12  C8   11 d          14.101  41.189  29.446  0.00  0.00     0.173 A 
ATOM     13  N2   11 d          14.039  41.438  30.777  0.00  0.00    -0.236 NA
ATOM     14  C9   11 d          14.248  40.295  31.483  0.00  0.00     0.126 A 
ATOM     15  C10  11 d          14.461  39.218  30.635  0.00  0.00     0.072 A 
ATOM     16  S1   11 d          14.379  39.731  29.234  0.00  0.00    -0.062 SA
ENDBRANCH   3  12
TORSDOF 2
ENDMDL
MODEL 7
REMARK VINA RESULT:      -5.5      3.983      6.818
REMARK  2 active torsions:
REMARK  status: ('A' for Active; 'I' for Inactive)
REMARK    1  A    between atoms: C1_1  and  C2_2 
REMARK       I    between atoms: C1_1  and  N1_10 
REMARK    2  A    between atoms: N1_10  and  C8_11 
ROOT
ATOM      1  C1   11 d          14.581  41.361  27.597  0.00  0.00     0.257 C 
ATOM      2  O1   11 d          15.535  42.215  27.548  0.00  0.00    -0.267 OA
ATOM      3  N1   11 d          13.542  41.430  26.613  0.00  0.00    -0.301 N 
ATOM      4  H5   11 d          12.727  40.737  26.616  0.00  0.00     0.171 HD
ENDROOT
BRANCH   1   5
ATOM      5  C2   11 d          14.607  40.326  28.689  0.00  0.00     0.032 A 
ATOM      6  C3   11 d          13.748  40.485  29.804  0.00  0.00     0.018 A 
ATOM      7  C4   11 d          13.736  39.549  30.849  0.00  0.00     0.020 A 
ATOM      8  C5   11 d          14.581  38.433  30.803  0.00  0.00     0.011 A 
ATOM      9 Br1   11 d          14.564  37.147  32.240  0.00  0.00    -0.051 Br
ATOM     10  C6   11 d          15.437  38.254  29.709  0.00  0.00     0.020 A 
ATOM     11  C7   11 d          15.451  39.190  28.661  0.00  0.00     0.018 A 
ENDBRANCH   1   5
BRANCH   3  12
ATOM     12  C8   11 d          13.531  42.442  25.555  0.00  0.00     0.173 A 
ATOM     13  N2   11 d          14.218  42.408  24.387  0.00  0.00    -0.236 NA
ATOM     14  C9   11 d          13.960  43.522  23.652  0.00  0.00     0.126 A 
ATOM     15  C10  11 d          13.073  44.360  24.312  0.00  0.00     0.072 A 
ATOM     16  S1   11 d          12.729  43.708  25.612  0.00  0.00    -0.062 SA
ENDBRANCH   3  12
TORSDOF 2
ENDMDL
MODEL 8
REMARK VINA RESULT:      -5.5      4.099      6.780
REMARK  2 active torsions:
REMARK  status: ('A' for Active; 'I' for Inactive)
REMARK    1  A    between atoms: C1_1  and  C2_2 
REMARK       I    between atoms: C1_1  and  N1_10 
REMARK    2  A    between atoms: N1_10  and  C8_11 
ROOT
ATOM      1  C1   11 d          13.982  42.392  25.988  0.00  0.00     0.257 C 
ATOM      2  O1   11 d          13.928  41.529  25.042  0.00  0.00    -0.267 OA
ATOM      3  N1   11 d          14.277  43.756  25.662  0.00  0.00    -0.301 N 
ATOM      4  H5   11 d          14.331  44.509  26.419  0.00  0.00     0.171 HD
ENDROOT
BRANCH   1   5
ATOM      5  C2   11 d          13.728  41.923  27.395  0.00  0.00     0.032 A 
ATOM      6  C3   11 d          14.602  40.967  27.967  0.00  0.00     0.018 A 
ATOM      7  C4   11 d          14.408  40.497  29.275  0.00  0.00     0.020 A 
ATOM      8  C5   11 d          13.336  40.973  30.040  0.00  0.00     0.011 A 
ATOM      9 Br1   11 d          13.068  40.327  31.837  0.00  0.00    -0.051 Br
ATOM     10  C6   11 d          12.460  41.921  29.496  0.00  0.00     0.020 A 
ATOM     11  C7   11 d          12.653  42.394  28.187  0.00  0.00     0.018 A 
ENDBRANCH   1   5
BRANCH   3  12
ATOM     12  C8   11 d          14.520  44.197  24.287  0.00  0.00     0.173 A 
ATOM     13  N2   11 d          13.592  44.580  23.377  0.00  0.00    -0.236 NA
ATOM     14  C9   11 d          14.189  44.924  22.205  0.00  0.00     0.126 A 
ATOM     15  C10  11 d          15.566  44.784  22.289  0.00  0.00     0.072 A 
ATOM     16  S1   11 d          15.881  44.294  23.665  0.00  0.00    -0.062 SA
ENDBRANCH   3  12
TORSDOF 2
ENDMDL
MODEL 9
REMARK VINA RESULT:      -5.4      2.026      2.860
REMARK  2 active torsions:
REMARK  status: ('A' for Active; 'I' for Inactive)
REMARK    1  A    between atoms: C1_1  and  C2_2 
REMARK       I    between atoms: C1_1  and  N1_10 
REMARK    2  A    between atoms: N1_10  and  C8_11 
ROOT
ATOM      1  C1   11 d          14.215  41.481  28.698  0.00  0.00     0.257 C 
ATOM      2  O1   11 d          14.341  41.967  29.877  0.00  0.00    -0.267 OA
ATOM      3  N1   11 d          14.329  40.064  28.520  0.00  0.00    -0.301 N 
ATOM      4  H5   11 d          14.231  39.616  27.553  0.00  0.00     0.171 HD
ENDROOT
BRANCH   1   5
ATOM      5  C2   11 d          13.951  42.431  27.561  0.00  0.00     0.032 A 
ATOM      6  C3   11 d          14.916  42.552  26.531  0.00  0.00     0.018 A 
ATOM      7  C4   11 d          14.717  43.425  25.450  0.00  0.00     0.020 A 
ATOM      8  C5   11 d          13.550  44.195  25.375  0.00  0.00     0.011 A 
ATOM      9 Br1   11 d          13.277  45.395  23.890  0.00  0.00    -0.051 Br
ATOM     10  C6   11 d          12.581  44.090  26.381  0.00  0.00     0.020 A 
ATOM     11  C7   11 d          12.777  43.217  27.464  0.00  0.00     0.018 A 
ENDBRANCH   1   5
BRANCH   3  12
ATOM     12  C8   11 d          14.586  39.152  29.636  0.00  0.00     0.173 A 
ATOM     13  N2   11 d          13.758  38.883  30.675  0.00  0.00    -0.236 NA
ATOM     14  C9   11 d          14.332  37.985  31.519  0.00  0.00     0.126 A 
ATOM     15  C10  11 d          15.590  37.613  31.069  0.00  0.00     0.072 A 
ATOM     16  S1   11 d          15.846  38.355  29.797  0.00  0.00    -0.062 SA
ENDBRANCH   3  12
TORSDOF 2
ENDMDL
MODEL 10
REMARK VINA RESULT:      -5.1      3.098      4.138
REMARK  2 active torsions:
REMARK  status: ('A' for Active; 'I' for Inactive)
REMARK    1  A    between atoms: C1_1  and  C2_2 
REMARK       I    between atoms: C1_1  and  N1_10 
REMARK    2  A    between atoms: N1_10  and  C8_11 
ROOT
ATOM      1  C1   11 d          14.521  39.882  29.670  0.00  0.00     0.257 C 
ATOM      2  O1   11 d          14.417  38.687  29.217  0.00  0.00    -0.267 OA
ATOM      3  N1   11 d          14.834  40.069  31.055  0.00  0.00    -0.301 N 
ATOM      4  H5   11 d          14.930  41.048  31.475  0.00  0.00     0.171 HD
ENDROOT
BRANCH   1   5
ATOM      5  C2   11 d          14.311  41.026  28.715  0.00  0.00     0.032 A 
ATOM      6  C3   11 d          13.167  41.845  28.869  0.00  0.00     0.018 A 
ATOM      7  C4   11 d          12.925  42.924  28.005  0.00  0.00     0.020 A 
ATOM      8  C5   11 d          13.822  43.207  26.967  0.00  0.00     0.011 A 
ATOM      9 Br1   11 d          13.490  44.688  25.778  0.00  0.00    -0.051 Br
ATOM     10  C6   11 d          14.962  42.410  26.797  0.00  0.00     0.020 A 
ATOM     11  C7   11 d          15.207  41.331  27.661  0.00  0.00     0.018 A 
ENDBRANCH   1   5
BRANCH   3  12
ATOM     12  C8   11 d          15.036  38.945  31.972  0.00  0.00     0.173 A 
ATOM     13  N2   11 d          14.087  38.297  32.690  0.00  0.00    -0.236 NA
ATOM     14  C9   11 d          14.647  37.304  33.430  0.00  0.00     0.126 A 
ATOM     15  C10  11 d          16.019  37.249  33.232  0.00  0.00     0.072 A 
ATOM     16  S1   11 d          16.372  38.326  32.258  0.00  0.00    -0.062 SA
ENDBRANCH   3  12
TORSDOF 2
ENDMDL
