MODEL 1
REMARK VINA RESULT:      -8.8      0.000      0.000
REMARK  2 active torsions:
REMARK  status: ('A' for Active; 'I' for Inactive)
REMARK    1  A    between atoms: C3_4  and  C4_5 
REMARK    2  A    between atoms: C4_5  and  N1_6 
ROOT
ATOM      1  C1   11 d         -11.720 207.185 113.079  0.00  0.00     0.045 A 
ATOM      2  C2   11 d         -10.455 207.913 113.318  0.00  0.00     0.168 C 
ATOM      3  O1   11 d         -10.185 208.361 114.462  0.00  0.00    -0.292 OA
ATOM      4  C3   11 d          -9.566 208.218 112.116  0.00  0.00     0.079 C 
ATOM      5  C9   11 d         -10.444 208.447 110.855  0.00  0.00     0.020 C 
ATOM      6  C10  11 d         -11.381 207.255 110.564  0.00  0.00     0.059 C 
ATOM      7  C11  11 d         -12.126 206.817 111.799  0.00  0.00     0.026 A 
ATOM      8  N3   11 d         -13.350 206.227 111.871  0.00  0.00    -0.353 N 
ATOM      9  C12  11 d         -13.692 206.145 113.182  0.00  0.00     0.045 A 
ATOM     10  C13  11 d         -12.703 206.744 113.948  0.00  0.00     0.007 A 
ATOM     11  C14  11 d         -12.800 206.822 115.345  0.00  0.00     0.015 A 
ATOM     12  C15  11 d         -13.937 206.263 115.963  0.00  0.00     0.001 A 
ATOM     13  C16  11 d         -14.944 205.648 115.188  0.00  0.00     0.002 A 
ATOM     14  C17  11 d         -14.831 205.588 113.785  0.00  0.00     0.030 A 
ATOM     15  C18  11 d         -14.095 205.655 110.746  0.00  0.00     0.156 C 
ENDROOT
BRANCH   4  16
ATOM     16  C4   11 d          -8.582 209.385 112.363  0.00  0.00     0.142 C 
BRANCH  16  17
ATOM     17  N1   11 d          -7.177 209.011 112.617  0.00  0.00    -0.343 N 
ATOM     18  C5   11 d          -6.440 209.404 113.689  0.00  0.00     0.101 A 
ATOM     19  N2   11 d          -5.199 208.883 113.592  0.00  0.00    -0.246 NA
ATOM     20  C8   11 d          -6.959 210.036 114.943  0.00  0.00     0.091 C 
ATOM     21  C6   11 d          -5.127 208.222 112.424  0.00  0.00     0.136 A 
ATOM     22  C7   11 d          -6.360 208.299 111.809  0.00  0.00     0.111 A 
ENDBRANCH  16  17
ENDBRANCH   4  16
TORSDOF 2
ENDMDL
MODEL 2
REMARK VINA RESULT:      -8.7      2.164      7.272
REMARK  2 active torsions:
REMARK  status: ('A' for Active; 'I' for Inactive)
REMARK    1  A    between atoms: C3_4  and  C4_5 
REMARK    2  A    between atoms: C4_5  and  N1_6 
ROOT
ATOM      1  C1   11 d         -10.332 207.974 113.159  0.00  0.00     0.045 A 
ATOM      2  C2   11 d         -11.121 207.465 112.017  0.00  0.00     0.168 C 
ATOM      3  O1   11 d         -10.685 207.577 110.842  0.00  0.00    -0.292 OA
ATOM      4  C3   11 d         -12.524 206.934 112.295  0.00  0.00     0.079 C 
ATOM      5  C9   11 d         -13.160 207.718 113.475  0.00  0.00     0.020 C 
ATOM      6  C10  11 d         -12.289 207.678 114.749  0.00  0.00     0.059 C 
ATOM      7  C11  11 d         -10.851 208.015 114.451  0.00  0.00     0.026 A 
ATOM      8  N3   11 d          -9.937 208.589 115.281  0.00  0.00    -0.353 N 
ATOM      9  C12  11 d          -8.820 208.843 114.553  0.00  0.00     0.045 A 
ATOM     10  C13  11 d          -9.046 208.481 113.233  0.00  0.00     0.007 A 
ATOM     11  C14  11 d          -8.064 208.650 112.246  0.00  0.00     0.015 A 
ATOM     12  C15  11 d          -6.822 209.193 112.631  0.00  0.00     0.001 A 
ATOM     13  C16  11 d          -6.586 209.558 113.975  0.00  0.00     0.002 A 
ATOM     14  C17  11 d          -7.589 209.388 114.949  0.00  0.00     0.030 A 
ATOM     15  C18  11 d         -10.085 208.767 116.728  0.00  0.00     0.156 C 
ENDROOT
BRANCH   4  16
ATOM     16  C4   11 d         -13.433 206.921 111.044  0.00  0.00     0.142 C 
BRANCH  16  17
ATOM     17  N1   11 d         -14.859 206.625 111.277  0.00  0.00    -0.343 N 
ATOM     18  C5   11 d         -15.396 205.382 111.387  0.00  0.00     0.101 A 
ATOM     19  N2   11 d         -16.727 205.487 111.588  0.00  0.00    -0.246 NA
ATOM     20  C8   11 d         -14.646 204.102 111.581  0.00  0.00     0.091 C 
ATOM     21  C6   11 d         -17.043 206.793 111.531  0.00  0.00     0.136 A 
ATOM     22  C7   11 d         -15.881 207.509 111.335  0.00  0.00     0.111 A 
ENDBRANCH  16  17
ENDBRANCH   4  16
TORSDOF 2
ENDMDL
MODEL 3
REMARK VINA RESULT:      -8.7      3.263      5.067
REMARK  2 active torsions:
REMARK  status: ('A' for Active; 'I' for Inactive)
REMARK    1  A    between atoms: C3_4  and  C4_5 
REMARK    2  A    between atoms: C4_5  and  N1_6 
ROOT
ATOM      1  C1   11 d         -12.985 207.133 113.495  0.00  0.00     0.045 A 
ATOM      2  C2   11 d         -12.861 207.228 114.965  0.00  0.00     0.168 C 
ATOM      3  O1   11 d         -13.889 207.284 115.688  0.00  0.00    -0.292 OA
ATOM      4  C3   11 d         -11.465 207.393 115.557  0.00  0.00     0.079 C 
ATOM      5  C9   11 d         -10.572 208.209 114.583  0.00  0.00     0.020 C 
ATOM      6  C10  11 d         -10.507 207.581 113.174  0.00  0.00     0.059 C 
ATOM      7  C11  11 d         -11.878 207.232 112.656  0.00  0.00     0.026 A 
ATOM      8  N3   11 d         -12.293 207.180 111.361  0.00  0.00    -0.353 N 
ATOM      9  C12  11 d         -13.635 206.973 111.365  0.00  0.00     0.045 A 
ATOM     10  C13  11 d         -14.087 206.953 112.676  0.00  0.00     0.007 A 
ATOM     11  C14  11 d         -15.444 206.773 112.984  0.00  0.00     0.015 A 
ATOM     12  C15  11 d         -16.348 206.601 111.918  0.00  0.00     0.001 A 
ATOM     13  C16  11 d         -15.892 206.615 110.581  0.00  0.00     0.002 A 
ATOM     14  C17  11 d         -14.527 206.806 110.294  0.00  0.00     0.030 A 
ATOM     15  C18  11 d         -11.426 207.200 110.180  0.00  0.00     0.156 C 
ENDROOT
BRANCH   4  16
ATOM     16  C4   11 d         -11.472 207.990 116.984  0.00  0.00     0.142 C 
BRANCH  16  17
ATOM     17  N1   11 d         -10.822 207.180 118.033  0.00  0.00    -0.343 N 
ATOM     18  C5   11 d         -11.441 206.246 118.800  0.00  0.00     0.101 A 
ATOM     19  N2   11 d         -10.548 205.710 119.658  0.00  0.00    -0.246 NA
ATOM     20  C8   11 d         -12.793 205.650 118.561  0.00  0.00     0.091 C 
ATOM     21  C6   11 d          -9.382 206.357 119.485  0.00  0.00     0.136 A 
ATOM     22  C7   11 d          -9.547 207.278 118.471  0.00  0.00     0.111 A 
ENDBRANCH  16  17
ENDBRANCH   4  16
TORSDOF 2
ENDMDL
MODEL 4
REMARK VINA RESULT:      -8.6      3.179      4.750
REMARK  2 active torsions:
REMARK  status: ('A' for Active; 'I' for Inactive)
REMARK    1  A    between atoms: C3_4  and  C4_5 
REMARK    2  A    between atoms: C4_5  and  N1_6 
ROOT
ATOM      1  C1   11 d         -12.780 207.264 113.386  0.00  0.00     0.045 A 
ATOM      2  C2   11 d         -12.577 207.421 114.842  0.00  0.00     0.168 C 
ATOM      3  O1   11 d         -13.565 207.507 115.616  0.00  0.00    -0.292 OA
ATOM      4  C3   11 d         -11.152 207.614 115.351  0.00  0.00     0.079 C 
ATOM      5  C9   11 d         -10.316 208.389 114.296  0.00  0.00     0.020 C 
ATOM      6  C10  11 d         -10.323 207.701 112.914  0.00  0.00     0.059 C 
ATOM      7  C11  11 d         -11.720 207.329 112.485  0.00  0.00     0.026 A 
ATOM      8  N3   11 d         -12.203 207.221 111.218  0.00  0.00    -0.353 N 
ATOM      9  C12  11 d         -13.542 207.012 111.303  0.00  0.00     0.045 A 
ATOM     10  C13  11 d         -13.923 207.048 112.636  0.00  0.00     0.007 A 
ATOM     11  C14  11 d         -15.261 206.878 113.024  0.00  0.00     0.015 A 
ATOM     12  C15  11 d         -16.220 206.659 112.016  0.00  0.00     0.001 A 
ATOM     13  C16  11 d         -15.837 206.618 110.658  0.00  0.00     0.002 A 
ATOM     14  C17  11 d         -14.489 206.798 110.289  0.00  0.00     0.030 A 
ATOM     15  C18  11 d         -11.401 207.192 109.992  0.00  0.00     0.156 C 
ENDROOT
BRANCH   4  16
ATOM     16  C4   11 d         -11.085 208.271 116.749  0.00  0.00     0.142 C 
BRANCH  16  17
ATOM     17  N1   11 d         -10.813 207.366 117.882  0.00  0.00    -0.343 N 
ATOM     18  C5   11 d          -9.617 207.231 118.511  0.00  0.00     0.101 A 
ATOM     19  N2   11 d          -9.730 206.311 119.493  0.00  0.00    -0.246 NA
ATOM     20  C8   11 d          -8.438 208.144 118.389  0.00  0.00     0.091 C 
ATOM     21  C6   11 d         -10.977 205.812 119.438  0.00  0.00     0.136 A 
ATOM     22  C7   11 d         -11.659 206.465 118.432  0.00  0.00     0.111 A 
ENDBRANCH  16  17
ENDBRANCH   4  16
TORSDOF 2
ENDMDL
MODEL 5
REMARK VINA RESULT:      -8.5      3.640      6.979
REMARK  2 active torsions:
REMARK  status: ('A' for Active; 'I' for Inactive)
REMARK    1  A    between atoms: C3_4  and  C4_5 
REMARK    2  A    between atoms: C4_5  and  N1_6 
ROOT
ATOM      1  C1   11 d         -13.739 206.351 113.411  0.00  0.00     0.045 A 
ATOM      2  C2   11 d         -14.121 206.039 114.805  0.00  0.00     0.168 C 
ATOM      3  O1   11 d         -15.327 206.085 115.160  0.00  0.00    -0.292 OA
ATOM      4  C3   11 d         -13.004 205.800 115.817  0.00  0.00     0.079 C 
ATOM      5  C9   11 d         -11.771 206.671 115.457  0.00  0.00     0.020 C 
ATOM      6  C10  11 d         -11.274 206.426 114.016  0.00  0.00     0.059 C 
ATOM      7  C11  11 d         -12.407 206.469 113.023  0.00  0.00     0.026 A 
ATOM      8  N3   11 d         -12.355 206.826 111.710  0.00  0.00    -0.353 N 
ATOM      9  C12  11 d         -13.628 206.862 111.241  0.00  0.00     0.045 A 
ATOM     10  C13  11 d         -14.503 206.584 112.280  0.00  0.00     0.007 A 
ATOM     11  C14  11 d         -15.893 206.569 112.088  0.00  0.00     0.015 A 
ATOM     12  C15  11 d         -16.386 206.839 110.796  0.00  0.00     0.001 A 
ATOM     13  C16  11 d         -15.499 207.118 109.734  0.00  0.00     0.002 A 
ATOM     14  C17  11 d         -14.107 207.136 109.950  0.00  0.00     0.030 A 
ATOM     15  C18  11 d         -11.136 206.999 110.916  0.00  0.00     0.156 C 
ENDROOT
BRANCH   4  16
ATOM     16  C4   11 d         -13.455 206.000 117.283  0.00  0.00     0.142 C 
BRANCH  16  17
ATOM     17  N1   11 d         -14.197 204.881 117.896  0.00  0.00    -0.343 N 
ATOM     18  C5   11 d         -14.625 204.833 119.184  0.00  0.00     0.101 A 
ATOM     19  N2   11 d         -15.258 203.661 119.401  0.00  0.00    -0.246 NA
ATOM     20  C8   11 d         -14.692 205.980 120.144  0.00  0.00     0.091 C 
ATOM     21  C6   11 d         -15.167 202.937 118.272  0.00  0.00     0.136 A 
ATOM     22  C7   11 d         -14.503 203.693 117.328  0.00  0.00     0.111 A 
ENDBRANCH  16  17
ENDBRANCH   4  16
TORSDOF 2
ENDMDL
MODEL 6
REMARK VINA RESULT:      -8.3      1.216      1.758
REMARK  2 active torsions:
REMARK  status: ('A' for Active; 'I' for Inactive)
REMARK    1  A    between atoms: C3_4  and  C4_5 
REMARK    2  A    between atoms: C4_5  and  N1_6 
ROOT
ATOM      1  C1   11 d         -11.709 207.583 113.386  0.00  0.00     0.045 A 
ATOM      2  C2   11 d         -10.510 208.125 114.060  0.00  0.00     0.168 C 
ATOM      3  O1   11 d         -10.547 208.423 115.282  0.00  0.00    -0.292 OA
ATOM      4  C3   11 d          -9.285 208.438 113.204  0.00  0.00     0.079 C 
ATOM      5  C9   11 d          -9.734 208.894 111.789  0.00  0.00     0.020 C 
ATOM      6  C10  11 d         -10.646 207.860 111.096  0.00  0.00     0.059 C 
ATOM      7  C11  11 d         -11.754 207.396 112.006  0.00  0.00     0.026 A 
ATOM      8  N3   11 d         -12.993 206.954 111.657  0.00  0.00    -0.353 N 
ATOM      9  C12  11 d         -13.708 206.786 112.798  0.00  0.00     0.045 A 
ATOM     10  C13  11 d         -12.937 207.181 113.880  0.00  0.00     0.007 A 
ATOM     11  C14  11 d         -13.431 207.132 115.193  0.00  0.00     0.015 A 
ATOM     12  C15  11 d         -14.742 206.657 115.390  0.00  0.00     0.001 A 
ATOM     13  C16  11 d         -15.530 206.248 114.292  0.00  0.00     0.002 A 
ATOM     14  C17  11 d         -15.018 206.313 112.982  0.00  0.00     0.030 A 
ATOM     15  C18  11 d         -13.425 206.591 110.304  0.00  0.00     0.156 C 
ENDROOT
BRANCH   4  16
ATOM     16  C4   11 d          -8.318 209.446 113.866  0.00  0.00     0.142 C 
BRANCH  16  17
ATOM     17  N1   11 d          -7.201 208.868 114.638  0.00  0.00    -0.343 N 
ATOM     18  C5   11 d          -6.088 208.301 114.105  0.00  0.00     0.101 A 
ATOM     19  N2   11 d          -5.285 207.871 115.101  0.00  0.00    -0.246 NA
ATOM     20  C8   11 d          -5.633 208.396 112.681  0.00  0.00     0.091 C 
ATOM     21  C6   11 d          -5.923 208.100 116.262  0.00  0.00     0.136 A 
ATOM     22  C7   11 d          -7.122 208.722 115.980  0.00  0.00     0.111 A 
ENDBRANCH  16  17
ENDBRANCH   4  16
TORSDOF 2
ENDMDL
MODEL 7
REMARK VINA RESULT:      -8.2      2.094      2.891
REMARK  2 active torsions:
REMARK  status: ('A' for Active; 'I' for Inactive)
REMARK    1  A    between atoms: C3_4  and  C4_5 
REMARK    2  A    between atoms: C4_5  and  N1_6 
ROOT
ATOM      1  C1   11 d         -11.482 207.299 112.942  0.00  0.00     0.045 A 
ATOM      2  C2   11 d         -10.747 207.653 114.175  0.00  0.00     0.168 C 
ATOM      3  O1   11 d         -11.270 207.464 115.304  0.00  0.00    -0.292 OA
ATOM      4  C3   11 d          -9.410 208.374 114.031  0.00  0.00     0.079 C 
ATOM      5  C9   11 d          -9.436 209.287 112.775  0.00  0.00     0.020 C 
ATOM      6  C10  11 d          -9.790 208.512 111.488  0.00  0.00     0.059 C 
ATOM      7  C11  11 d         -11.005 207.642 111.679  0.00  0.00     0.026 A 
ATOM      8  N3   11 d         -11.911 207.254 110.740  0.00  0.00    -0.353 N 
ATOM      9  C12  11 d         -12.916 206.605 111.379  0.00  0.00     0.045 A 
ATOM     10  C13  11 d         -12.678 206.631 112.745  0.00  0.00     0.007 A 
ATOM     11  C14  11 d         -13.568 206.047 113.659  0.00  0.00     0.015 A 
ATOM     12  C15  11 d         -14.721 205.416 113.151  0.00  0.00     0.001 A 
ATOM     13  C16  11 d         -14.965 205.382 111.761  0.00  0.00     0.002 A 
ATOM     14  C17  11 d         -14.063 205.982 110.861  0.00  0.00     0.030 A 
ATOM     15  C18  11 d         -11.755 207.389 109.289  0.00  0.00     0.156 C 
ENDROOT
BRANCH   4  16
ATOM     16  C4   11 d          -8.989 209.142 115.305  0.00  0.00     0.142 C 
BRANCH  16  17
ATOM     17  N1   11 d          -7.814 208.615 116.027  0.00  0.00    -0.343 N 
ATOM     18  C5   11 d          -7.829 208.103 117.285  0.00  0.00     0.101 A 
ATOM     19  N2   11 d          -6.580 207.726 117.628  0.00  0.00    -0.246 NA
ATOM     20  C8   11 d          -9.040 207.708 118.072  0.00  0.00     0.091 C 
ATOM     21  C6   11 d          -5.762 208.067 116.617  0.00  0.00     0.136 A 
ATOM     22  C7   11 d          -6.527 208.624 115.613  0.00  0.00     0.111 A 
ENDBRANCH  16  17
ENDBRANCH   4  16
TORSDOF 2
ENDMDL
MODEL 8
REMARK VINA RESULT:      -8.1      3.612      5.176
REMARK  2 active torsions:
REMARK  status: ('A' for Active; 'I' for Inactive)
REMARK    1  A    between atoms: C3_4  and  C4_5 
REMARK    2  A    between atoms: C4_5  and  N1_6 
ROOT
ATOM      1  C1   11 d         -13.511 206.102 113.376  0.00  0.00     0.045 A 
ATOM      2  C2   11 d         -13.459 205.625 114.774  0.00  0.00     0.168 C 
ATOM      3  O1   11 d         -14.519 205.464 115.432  0.00  0.00    -0.292 OA
ATOM      4  C3   11 d         -12.088 205.470 115.428  0.00  0.00     0.079 C 
ATOM      5  C9   11 d         -11.113 206.540 114.867  0.00  0.00     0.020 C 
ATOM      6  C10  11 d         -11.002 206.489 113.328  0.00  0.00     0.059 C 
ATOM      7  C11  11 d         -12.359 206.446 112.673  0.00  0.00     0.026 A 
ATOM      8  N3   11 d         -12.709 206.913 111.444  0.00  0.00    -0.353 N 
ATOM      9  C12  11 d         -14.056 206.800 111.327  0.00  0.00     0.045 A 
ATOM     10  C13  11 d         -14.576 206.312 112.517  0.00  0.00     0.007 A 
ATOM     11  C14  11 d         -15.953 206.109 112.690  0.00  0.00     0.015 A 
ATOM     12  C15  11 d         -16.808 206.408 111.611  0.00  0.00     0.001 A 
ATOM     13  C16  11 d         -16.284 206.901 110.397  0.00  0.00     0.002 A 
ATOM     14  C17  11 d         -14.899 207.105 110.246  0.00  0.00     0.030 A 
ATOM     15  C18  11 d         -11.782 207.328 110.387  0.00  0.00     0.156 C 
ENDROOT
BRANCH   4  16
ATOM     16  C4   11 d         -12.143 205.481 116.974  0.00  0.00     0.142 C 
BRANCH  16  17
ATOM     17  N1   11 d         -11.423 206.581 117.643  0.00  0.00    -0.343 N 
ATOM     18  C5   11 d         -11.993 207.717 118.123  0.00  0.00     0.101 A 
ATOM     19  N2   11 d         -11.037 208.503 118.662  0.00  0.00    -0.246 NA
ATOM     20  C8   11 d         -13.455 207.960 118.331  0.00  0.00     0.091 C 
ATOM     21  C6   11 d          -9.853 207.899 118.458  0.00  0.00     0.136 A 
ATOM     22  C7   11 d         -10.087 206.698 117.820  0.00  0.00     0.111 A 
ENDBRANCH  16  17
ENDBRANCH   4  16
TORSDOF 2
ENDMDL
MODEL 9
REMARK VINA RESULT:      -8.1      2.100      4.216
REMARK  2 active torsions:
REMARK  status: ('A' for Active; 'I' for Inactive)
REMARK    1  A    between atoms: C3_4  and  C4_5 
REMARK    2  A    between atoms: C4_5  and  N1_6 
ROOT
ATOM      1  C1   11 d          -9.718 208.582 113.219  0.00  0.00     0.045 A 
ATOM      2  C2   11 d          -8.407 209.266 113.218  0.00  0.00     0.168 C 
ATOM      3  O1   11 d          -7.732 209.346 112.160  0.00  0.00    -0.292 OA
ATOM      4  C3   11 d          -7.846 209.742 114.555  0.00  0.00     0.079 C 
ATOM      5  C9   11 d          -8.292 208.777 115.687  0.00  0.00     0.020 C 
ATOM      6  C10  11 d          -9.825 208.614 115.756  0.00  0.00     0.059 C 
ATOM      7  C11  11 d         -10.416 208.333 114.398  0.00  0.00     0.026 A 
ATOM      8  N3   11 d         -11.548 207.635 114.107  0.00  0.00    -0.353 N 
ATOM      9  C12  11 d         -11.617 207.504 112.758  0.00  0.00     0.045 A 
ATOM     10  C13  11 d         -10.488 208.073 112.188  0.00  0.00     0.007 A 
ATOM     11  C14  11 d         -10.282 208.068 110.800  0.00  0.00     0.015 A 
ATOM     12  C15  11 d         -11.267 207.473 109.986  0.00  0.00     0.001 A 
ATOM     13  C16  11 d         -12.420 206.898 110.561  0.00  0.00     0.002 A 
ATOM     14  C17  11 d         -12.603 206.905 111.958  0.00  0.00     0.030 A 
ATOM     15  C18  11 d         -12.575 207.226 115.069  0.00  0.00     0.156 C 
ENDROOT
BRANCH   4  16
ATOM     16  C4   11 d          -6.314 209.954 114.535  0.00  0.00     0.142 C 
BRANCH  16  17
ATOM     17  N1   11 d          -5.601 209.673 115.796  0.00  0.00    -0.343 N 
ATOM     18  C5   11 d          -4.985 208.503 116.107  0.00  0.00     0.101 A 
ATOM     19  N2   11 d          -4.446 208.596 117.341  0.00  0.00    -0.246 NA
ATOM     20  C8   11 d          -4.656 207.391 115.161  0.00  0.00     0.091 C 
ATOM     21  C6   11 d          -4.783 209.798 117.840  0.00  0.00     0.136 A 
ATOM     22  C7   11 d          -5.507 210.476 116.881  0.00  0.00     0.111 A 
ENDBRANCH  16  17
ENDBRANCH   4  16
TORSDOF 2
ENDMDL
MODEL 10
REMARK VINA RESULT:      -7.9      3.151      7.003
REMARK  2 active torsions:
REMARK  status: ('A' for Active; 'I' for Inactive)
REMARK    1  A    between atoms: C3_4  and  C4_5 
REMARK    2  A    between atoms: C4_5  and  N1_6 
ROOT
ATOM      1  C1   11 d         -12.628 206.905 113.751  0.00  0.00     0.045 A 
ATOM      2  C2   11 d         -12.472 206.976 115.219  0.00  0.00     0.168 C 
ATOM      3  O1   11 d         -11.386 207.358 115.726  0.00  0.00    -0.292 OA
ATOM      4  C3   11 d         -13.609 206.446 116.088  0.00  0.00     0.079 C 
ATOM      5  C9   11 d         -14.309 205.258 115.373  0.00  0.00     0.020 C 
ATOM      6  C10  11 d         -14.816 205.633 113.963  0.00  0.00     0.059 C 
ATOM      7  C11  11 d         -13.753 206.336 113.158  0.00  0.00     0.026 A 
ATOM      8  N3   11 d         -13.598 206.344 111.806  0.00  0.00    -0.353 N 
ATOM      9  C12  11 d         -12.429 206.976 111.529  0.00  0.00     0.045 A 
ATOM     10  C13  11 d         -11.806 207.321 112.719  0.00  0.00     0.007 A 
ATOM     11  C14  11 d         -10.564 207.975 112.737  0.00  0.00     0.015 A 
ATOM     12  C15  11 d          -9.961 208.286 111.502  0.00  0.00     0.001 A 
ATOM     13  C16  11 d         -10.594 207.942 110.288  0.00  0.00     0.002 A 
ATOM     14  C17  11 d         -11.836 207.278 110.292  0.00  0.00     0.030 A 
ATOM     15  C18  11 d         -14.583 205.881 110.826  0.00  0.00     0.156 C 
ENDROOT
BRANCH   4  16
ATOM     16  C4   11 d         -13.165 206.084 117.524  0.00  0.00     0.142 C 
BRANCH  16  17
ATOM     17  N1   11 d         -14.091 205.236 118.299  0.00  0.00    -0.343 N 
ATOM     18  C5   11 d         -14.645 205.567 119.495  0.00  0.00     0.101 A 
ATOM     19  N2   11 d         -15.431 204.554 119.917  0.00  0.00    -0.246 NA
ATOM     20  C8   11 d         -14.669 206.927 120.120  0.00  0.00     0.091 C 
ATOM     21  C6   11 d         -15.316 203.554 119.026  0.00  0.00     0.136 A 
ATOM     22  C7   11 d         -14.479 203.973 118.014  0.00  0.00     0.111 A 
ENDBRANCH  16  17
ENDBRANCH   4  16
TORSDOF 2
ENDMDL
