MODEL 1
REMARK VINA RESULT:      -9.0      0.000      0.000
REMARK  1 active torsions:
REMARK  status: ('A' for Active; 'I' for Inactive)
REMARK    1  A    between atoms: C2_2  and  O1_18 
ROOT
ATOM      1  C1   11 d         -11.118 208.148 113.687  0.00  0.00     0.072 A 
ATOM      2  C2   11 d         -12.464 207.883 113.853  0.00  0.00     0.178 A 
ATOM      3  N1   11 d         -12.934 207.414 112.664  0.00  0.00    -0.209 N 
ATOM      4  C3   11 d         -14.278 206.976 112.374  0.00  0.00     0.061 A 
ATOM      5  C4   11 d         -14.803 207.154 111.077  0.00  0.00     0.031 A 
ATOM      6  C5   11 d         -16.108 206.736 110.769  0.00  0.00     0.002 A 
ATOM      7  C6   11 d         -16.900 206.130 111.752  0.00  0.00     0.000 A 
ATOM      8  C7   11 d         -16.387 205.936 113.043  0.00  0.00     0.002 A 
ATOM      9  C8   11 d         -15.083 206.351 113.352  0.00  0.00     0.031 A 
ATOM     10  N2   11 d         -11.971 207.416 111.771  0.00  0.00    -0.144 NA
ATOM     11  C9   11 d         -10.848 207.858 112.371  0.00  0.00     0.185 A 
ATOM     12  N3   11 d          -9.603 208.010 111.845  0.00  0.00    -0.232 NA
ATOM     13  C10  11 d          -8.583 208.482 112.631  0.00  0.00     0.033 A 
ATOM     14  C11  11 d          -8.815 208.750 114.005  0.00  0.00     0.034 A 
ATOM     15  C12  11 d         -10.114 208.624 114.551  0.00  0.00    -0.042 A 
ATOM     16  C13  11 d         -10.352 208.831 116.022  0.00  0.00     0.049 C 
ATOM     17  C14  11 d          -7.195 208.521 112.066  0.00  0.00     0.070 C 
ENDROOT
BRANCH   2  18
ATOM     18  O1   11 d         -13.205 208.028 115.048  0.00  0.00    -0.344 OA
ATOM     19  H13  11 d         -13.880 208.783 114.838  0.00  0.00     0.219 HD
ENDBRANCH   2  18
TORSDOF 1
ENDMDL
MODEL 2
REMARK VINA RESULT:      -8.5      1.465      6.027
REMARK  1 active torsions:
REMARK  status: ('A' for Active; 'I' for Inactive)
REMARK    1  A    between atoms: C2_2  and  O1_18 
ROOT
ATOM      1  C1   11 d         -12.792 206.599 113.856  0.00  0.00     0.072 A 
ATOM      2  C2   11 d         -11.562 207.013 114.330  0.00  0.00     0.178 A 
ATOM      3  N1   11 d         -10.929 207.651 113.307  0.00  0.00    -0.209 N 
ATOM      4  C3   11 d          -9.631 208.280 113.348  0.00  0.00     0.061 A 
ATOM      5  C4   11 d          -8.828 208.297 112.187  0.00  0.00     0.031 A 
ATOM      6  C5   11 d          -7.562 208.903 112.201  0.00  0.00     0.002 A 
ATOM      7  C6   11 d          -7.085 209.504 113.373  0.00  0.00     0.000 A 
ATOM      8  C7   11 d          -7.876 209.506 114.531  0.00  0.00     0.002 A 
ATOM      9  C8   11 d          -9.143 208.902 114.518  0.00  0.00     0.031 A 
ATOM     10  N2   11 d         -11.676 207.616 112.228  0.00  0.00    -0.144 NA
ATOM     11  C9   11 d         -12.823 206.980 112.536  0.00  0.00     0.185 A 
ATOM     12  N3   11 d         -13.898 206.726 111.742  0.00  0.00    -0.232 NA
ATOM     13  C10  11 d         -14.980 206.056 112.252  0.00  0.00     0.033 A 
ATOM     14  C11  11 d         -15.001 205.686 113.622  0.00  0.00     0.034 A 
ATOM     15  C12  11 d         -13.874 205.919 114.445  0.00  0.00    -0.042 A 
ATOM     16  C13  11 d         -13.919 205.602 115.915  0.00  0.00     0.049 C 
ATOM     17  C14  11 d         -16.200 205.898 111.397  0.00  0.00     0.070 C 
ENDROOT
BRANCH   2  18
ATOM     18  O1   11 d         -11.072 206.846 115.645  0.00  0.00    -0.344 OA
ATOM     19  H13  11 d         -10.712 205.876 115.660  0.00  0.00     0.219 HD
ENDBRANCH   2  18
TORSDOF 1
ENDMDL
MODEL 3
REMARK VINA RESULT:      -8.2      1.647      3.070
REMARK  1 active torsions:
REMARK  status: ('A' for Active; 'I' for Inactive)
REMARK    1  A    between atoms: C2_2  and  O1_18 
ROOT
ATOM      1  C1   11 d         -11.299 207.953 114.233  0.00  0.00     0.072 A 
ATOM      2  C2   11 d         -12.025 207.637 113.100  0.00  0.00     0.178 A 
ATOM      3  N1   11 d         -13.296 207.355 113.501  0.00  0.00    -0.209 N 
ATOM      4  C3   11 d         -14.413 207.005 112.657  0.00  0.00     0.061 A 
ATOM      5  C4   11 d         -15.408 206.131 113.146  0.00  0.00     0.031 A 
ATOM      6  C5   11 d         -16.505 205.775 112.346  0.00  0.00     0.002 A 
ATOM      7  C6   11 d         -16.624 206.294 111.050  0.00  0.00     0.000 A 
ATOM      8  C7   11 d         -15.650 207.172 110.554  0.00  0.00     0.002 A 
ATOM      9  C8   11 d         -14.554 207.530 111.354  0.00  0.00     0.031 A 
ATOM     10  N2   11 d         -13.381 207.436 114.808  0.00  0.00    -0.144 NA
ATOM     11  C9   11 d         -12.174 207.804 115.282  0.00  0.00     0.185 A 
ATOM     12  N3   11 d         -11.795 208.030 116.568  0.00  0.00    -0.232 NA
ATOM     13  C10  11 d         -10.504 208.399 116.845  0.00  0.00     0.033 A 
ATOM     14  C11  11 d          -9.585 208.606 115.784  0.00  0.00     0.034 A 
ATOM     15  C12  11 d          -9.964 208.342 114.446  0.00  0.00    -0.042 A 
ATOM     16  C13  11 d          -9.021 208.633 113.310  0.00  0.00     0.049 C 
ATOM     17  C14  11 d         -10.143 208.764 118.253  0.00  0.00     0.070 C 
ENDROOT
BRANCH   2  18
ATOM     18  O1   11 d         -11.549 207.650 111.770  0.00  0.00    -0.344 OA
ATOM     19  H13  11 d         -11.900 208.543 111.383  0.00  0.00     0.219 HD
ENDBRANCH   2  18
TORSDOF 1
ENDMDL
MODEL 4
REMARK VINA RESULT:      -8.1      2.047      6.623
REMARK  1 active torsions:
REMARK  status: ('A' for Active; 'I' for Inactive)
REMARK    1  A    between atoms: C2_2  and  O1_18 
ROOT
ATOM      1  C1   11 d         -12.075 207.336 112.669  0.00  0.00     0.072 A 
ATOM      2  C2   11 d         -10.861 207.878 112.292  0.00  0.00     0.178 A 
ATOM      3  N1   11 d         -10.141 208.086 113.429  0.00  0.00    -0.209 N 
ATOM      4  C3   11 d          -8.798 208.607 113.522  0.00  0.00     0.061 A 
ATOM      5  C4   11 d          -8.425 209.374 114.647  0.00  0.00     0.031 A 
ATOM      6  C5   11 d          -7.126 209.891 114.762  0.00  0.00     0.002 A 
ATOM      7  C6   11 d          -6.181 209.643 113.757  0.00  0.00     0.000 A 
ATOM      8  C7   11 d          -6.533 208.873 112.639  0.00  0.00     0.002 A 
ATOM      9  C8   11 d          -7.832 208.353 112.524  0.00  0.00     0.031 A 
ATOM     10  N2   11 d         -10.853 207.746 114.478  0.00  0.00    -0.144 NA
ATOM     11  C9   11 d         -12.041 207.281 114.042  0.00  0.00     0.185 A 
ATOM     12  N3   11 d         -13.086 206.799 114.765  0.00  0.00    -0.232 NA
ATOM     13  C10  11 d         -14.221 206.371 114.125  0.00  0.00     0.033 A 
ATOM     14  C11  11 d         -14.274 206.373 112.707  0.00  0.00     0.034 A 
ATOM     15  C12  11 d         -13.203 206.902 111.949  0.00  0.00    -0.042 A 
ATOM     16  C13  11 d         -13.220 206.835 110.446  0.00  0.00     0.049 C 
ATOM     17  C14  11 d         -15.308 205.730 114.933  0.00  0.00     0.070 C 
ENDROOT
BRANCH   2  18
ATOM     18  O1   11 d         -10.430 208.127 110.970  0.00  0.00    -0.344 OA
ATOM     19  H13  11 d         -10.729 209.100 110.784  0.00  0.00     0.219 HD
ENDBRANCH   2  18
TORSDOF 1
ENDMDL
MODEL 5
REMARK VINA RESULT:      -7.7      2.306      2.857
REMARK  1 active torsions:
REMARK  status: ('A' for Active; 'I' for Inactive)
REMARK    1  A    between atoms: C2_2  and  O1_18 
ROOT
ATOM      1  C1   11 d         -12.698 207.532 116.092  0.00  0.00     0.072 A 
ATOM      2  C2   11 d         -13.893 207.251 115.457  0.00  0.00     0.178 A 
ATOM      3  N1   11 d         -13.647 207.243 114.118  0.00  0.00    -0.209 N 
ATOM      4  C3   11 d         -14.593 206.962 113.064  0.00  0.00     0.061 A 
ATOM      5  C4   11 d         -14.450 207.598 111.813  0.00  0.00     0.031 A 
ATOM      6  C5   11 d         -15.355 207.342 110.771  0.00  0.00     0.002 A 
ATOM      7  C6   11 d         -16.411 206.441 110.966  0.00  0.00     0.000 A 
ATOM      8  C7   11 d         -16.559 205.792 112.201  0.00  0.00     0.002 A 
ATOM      9  C8   11 d         -15.653 206.047 113.242  0.00  0.00     0.031 A 
ATOM     10  N2   11 d         -12.389 207.543 113.892  0.00  0.00    -0.144 NA
ATOM     11  C9   11 d         -11.784 207.723 115.083  0.00  0.00     0.185 A 
ATOM     12  N3   11 d         -10.484 208.027 115.343  0.00  0.00    -0.232 NA
ATOM     13  C10  11 d         -10.062 208.170 116.639  0.00  0.00     0.033 A 
ATOM     14  C11  11 d         -10.968 207.938 117.707  0.00  0.00     0.034 A 
ATOM     15  C12  11 d         -12.328 207.652 117.444  0.00  0.00    -0.042 A 
ATOM     16  C13  11 d         -13.275 207.328 118.567  0.00  0.00     0.049 C 
ATOM     17  C14  11 d          -8.602 208.382 116.904  0.00  0.00     0.070 C 
ENDROOT
BRANCH   2  18
ATOM     18  O1   11 d         -15.129 206.977 116.084  0.00  0.00    -0.344 OA
ATOM     19  H13  11 d         -14.886 206.852 117.081  0.00  0.00     0.219 HD
ENDBRANCH   2  18
TORSDOF 1
ENDMDL
MODEL 6
REMARK VINA RESULT:      -7.5      2.425      6.286
REMARK  1 active torsions:
REMARK  status: ('A' for Active; 'I' for Inactive)
REMARK    1  A    between atoms: C2_2  and  O1_18 
ROOT
ATOM      1  C1   11 d         -13.556 206.316 114.528  0.00  0.00     0.072 A 
ATOM      2  C2   11 d         -12.840 207.117 113.659  0.00  0.00     0.178 A 
ATOM      3  N1   11 d         -11.613 207.320 114.215  0.00  0.00    -0.209 N 
ATOM      4  C3   11 d         -10.518 208.070 113.648  0.00  0.00     0.061 A 
ATOM      5  C4   11 d          -9.627 208.755 114.503  0.00  0.00     0.031 A 
ATOM      6  C5   11 d          -8.553 209.490 113.977  0.00  0.00     0.002 A 
ATOM      7  C6   11 d          -8.353 209.544 112.591  0.00  0.00     0.000 A 
ATOM      8  C7   11 d          -9.223 208.859 111.730  0.00  0.00     0.002 A 
ATOM      9  C8   11 d         -10.296 208.122 112.255  0.00  0.00     0.031 A 
ATOM     10  N2   11 d         -11.550 206.731 115.386  0.00  0.00    -0.144 NA
ATOM     11  C9   11 d         -12.724 206.106 115.602  0.00  0.00     0.185 A 
ATOM     12  N3   11 d         -13.108 205.354 116.668  0.00  0.00    -0.232 NA
ATOM     13  C10  11 d         -14.361 204.800 116.697  0.00  0.00     0.033 A 
ATOM     14  C11  11 d         -15.230 204.959 115.587  0.00  0.00     0.034 A 
ATOM     15  C12  11 d         -14.850 205.766 114.489  0.00  0.00    -0.042 A 
ATOM     16  C13  11 d         -15.733 205.875 113.275  0.00  0.00     0.049 C 
ATOM     17  C14  11 d         -14.715 203.874 117.822  0.00  0.00     0.070 C 
ENDROOT
BRANCH   2  18
ATOM     18  O1   11 d         -13.282 207.598 112.406  0.00  0.00    -0.344 OA
ATOM     19  H13  11 d         -14.138 208.135 112.628  0.00  0.00     0.219 HD
ENDBRANCH   2  18
TORSDOF 1
ENDMDL
MODEL 7
REMARK VINA RESULT:      -7.5      2.808      5.247
REMARK  1 active torsions:
REMARK  status: ('A' for Active; 'I' for Inactive)
REMARK    1  A    between atoms: C2_2  and  O1_18 
ROOT
ATOM      1  C1   11 d         -13.885 206.536 112.828  0.00  0.00     0.072 A 
ATOM      2  C2   11 d         -14.252 206.299 114.138  0.00  0.00     0.178 A 
ATOM      3  N1   11 d         -13.146 206.489 114.909  0.00  0.00    -0.209 N 
ATOM      4  C3   11 d         -13.061 206.385 116.346  0.00  0.00     0.061 A 
ATOM      5  C4   11 d         -11.859 205.946 116.942  0.00  0.00     0.031 A 
ATOM      6  C5   11 d         -11.751 205.837 118.338  0.00  0.00     0.002 A 
ATOM      7  C6   11 d         -12.840 206.171 119.153  0.00  0.00     0.000 A 
ATOM      8  C7   11 d         -14.037 206.619 118.576  0.00  0.00     0.002 A 
ATOM      9  C8   11 d         -14.146 206.730 117.181  0.00  0.00     0.031 A 
ATOM     10  N2   11 d         -12.117 206.784 114.148  0.00  0.00    -0.144 NA
ATOM     11  C9   11 d         -12.541 206.822 112.870  0.00  0.00     0.185 A 
ATOM     12  N3   11 d         -11.834 207.105 111.744  0.00  0.00    -0.232 NA
ATOM     13  C10  11 d         -12.458 207.090 110.523  0.00  0.00     0.033 A 
ATOM     14  C11  11 d         -13.852 206.841 110.446  0.00  0.00     0.034 A 
ATOM     15  C12  11 d         -14.589 206.515 111.609  0.00  0.00    -0.042 A 
ATOM     16  C13  11 d         -16.080 206.328 111.546  0.00  0.00     0.049 C 
ATOM     17  C14  11 d         -11.688 207.527 109.313  0.00  0.00     0.070 C 
ENDROOT
BRANCH   2  18
ATOM     18  O1   11 d         -15.547 205.967 114.598  0.00  0.00    -0.344 OA
ATOM     19  H13  11 d         -15.427 205.044 115.049  0.00  0.00     0.219 HD
ENDBRANCH   2  18
TORSDOF 1
ENDMDL
MODEL 8
REMARK VINA RESULT:      -7.3      2.442      3.868
REMARK  1 active torsions:
REMARK  status: ('A' for Active; 'I' for Inactive)
REMARK    1  A    between atoms: C2_2  and  O1_18 
ROOT
ATOM      1  C1   11 d         -11.683 207.125 115.639  0.00  0.00     0.072 A 
ATOM      2  C2   11 d         -12.148 207.329 114.354  0.00  0.00     0.178 A 
ATOM      3  N1   11 d         -13.255 206.552 114.197  0.00  0.00    -0.209 N 
ATOM      4  C3   11 d         -14.094 206.464 113.025  0.00  0.00     0.061 A 
ATOM      5  C4   11 d         -14.737 205.245 112.719  0.00  0.00     0.031 A 
ATOM      6  C5   11 d         -15.558 205.134 111.586  0.00  0.00     0.002 A 
ATOM      7  C6   11 d         -15.753 206.241 110.750  0.00  0.00     0.000 A 
ATOM      8  C7   11 d         -15.130 207.462 111.048  0.00  0.00     0.002 A 
ATOM      9  C8   11 d         -14.310 207.575 112.182  0.00  0.00     0.031 A 
ATOM     10  N2   11 d         -13.471 205.855 115.289  0.00  0.00    -0.144 NA
ATOM     11  C9   11 d         -12.526 206.188 116.189  0.00  0.00     0.185 A 
ATOM     12  N3   11 d         -12.363 205.738 117.462  0.00  0.00    -0.232 NA
ATOM     13  C10  11 d         -11.323 206.205 118.224  0.00  0.00     0.033 A 
ATOM     14  C11  11 d         -10.460 207.205 117.704  0.00  0.00     0.034 A 
ATOM     15  C12  11 d         -10.605 207.655 116.371  0.00  0.00    -0.042 A 
ATOM     16  C13  11 d          -9.744 208.769 115.840  0.00  0.00     0.049 C 
ATOM     17  C14  11 d         -11.237 205.789 119.661  0.00  0.00     0.070 C 
ENDROOT
BRANCH   2  18
ATOM     18  O1   11 d         -11.602 208.213 113.397  0.00  0.00    -0.344 OA
ATOM     19  H13  11 d         -11.704 207.710 112.499  0.00  0.00     0.219 HD
ENDBRANCH   2  18
TORSDOF 1
ENDMDL
MODEL 9
REMARK VINA RESULT:      -7.1      2.700      4.505
REMARK  1 active torsions:
REMARK  status: ('A' for Active; 'I' for Inactive)
REMARK    1  A    between atoms: C2_2  and  O1_18 
ROOT
ATOM      1  C1   11 d         -11.602 207.818 116.202  0.00  0.00     0.072 A 
ATOM      2  C2   11 d         -12.113 207.675 114.926  0.00  0.00     0.178 A 
ATOM      3  N1   11 d         -11.074 207.810 114.057  0.00  0.00    -0.209 N 
ATOM      4  C3   11 d         -11.126 207.704 112.618  0.00  0.00     0.061 A 
ATOM      5  C4   11 d         -10.243 208.473 111.831  0.00  0.00     0.031 A 
ATOM      6  C5   11 d         -10.273 208.388 110.430  0.00  0.00     0.002 A 
ATOM      7  C6   11 d         -11.182 207.528 109.800  0.00  0.00     0.000 A 
ATOM      8  C7   11 d         -12.058 206.748 110.570  0.00  0.00     0.002 A 
ATOM      9  C8   11 d         -12.027 206.832 111.970  0.00  0.00     0.031 A 
ATOM     10  N2   11 d          -9.969 208.068 114.718  0.00  0.00    -0.144 NA
ATOM     11  C9   11 d         -10.263 208.076 116.033  0.00  0.00     0.185 A 
ATOM     12  N3   11 d          -9.434 208.279 117.092  0.00  0.00    -0.232 NA
ATOM     13  C10  11 d          -9.936 208.248 118.367  0.00  0.00     0.033 A 
ATOM     14  C11  11 d         -11.304 207.941 118.581  0.00  0.00     0.034 A 
ATOM     15  C12  11 d         -12.179 207.760 117.484  0.00  0.00    -0.042 A 
ATOM     16  C13  11 d         -13.612 207.357 117.703  0.00  0.00     0.049 C 
ATOM     17  C14  11 d          -8.983 208.349 119.520  0.00  0.00     0.070 C 
ENDROOT
BRANCH   2  18
ATOM     18  O1   11 d         -13.457 207.396 114.588  0.00  0.00    -0.344 OA
ATOM     19  H13  11 d         -14.001 208.115 115.096  0.00  0.00     0.219 HD
ENDBRANCH   2  18
TORSDOF 1
ENDMDL
MODEL 10
REMARK VINA RESULT:      -7.0      2.780      4.617
REMARK  1 active torsions:
REMARK  status: ('A' for Active; 'I' for Inactive)
REMARK    1  A    between atoms: C2_2  and  O1_18 
ROOT
ATOM      1  C1   11 d         -10.612 207.877 113.422  0.00  0.00     0.072 A 
ATOM      2  C2   11 d         -10.610 207.803 114.801  0.00  0.00     0.178 A 
ATOM      3  N1   11 d         -11.734 207.131 115.173  0.00  0.00    -0.209 N 
ATOM      4  C3   11 d         -12.136 206.788 116.516  0.00  0.00     0.061 A 
ATOM      5  C4   11 d         -13.509 206.723 116.837  0.00  0.00     0.031 A 
ATOM      6  C5   11 d         -13.925 206.391 118.135  0.00  0.00     0.002 A 
ATOM      7  C6   11 d         -12.975 206.112 119.127  0.00  0.00     0.000 A 
ATOM      8  C7   11 d         -11.608 206.161 118.819  0.00  0.00     0.002 A 
ATOM      9  C8   11 d         -11.190 206.491 117.521  0.00  0.00     0.031 A 
ATOM     10  N2   11 d         -12.444 206.827 114.111  0.00  0.00    -0.144 NA
ATOM     11  C9   11 d         -11.780 207.269 113.025  0.00  0.00     0.185 A 
ATOM     12  N3   11 d         -12.121 207.162 111.713  0.00  0.00    -0.232 NA
ATOM     13  C10  11 d         -11.300 207.685 110.749  0.00  0.00     0.033 A 
ATOM     14  C11  11 d         -10.066 208.281 111.118  0.00  0.00     0.034 A 
ATOM     15  C12  11 d          -9.719 208.424 112.482  0.00  0.00    -0.042 A 
ATOM     16  C13  11 d          -8.379 208.982 112.879  0.00  0.00     0.049 C 
ATOM     17  C14  11 d         -11.634 207.446 109.307  0.00  0.00     0.070 C 
ENDROOT
BRANCH   2  18
ATOM     18  O1   11 d          -9.604 208.294 115.664  0.00  0.00    -0.344 OA
ATOM     19  H13  11 d          -9.353 207.481 116.251  0.00  0.00     0.219 HD
ENDBRANCH   2  18
TORSDOF 1
ENDMDL
