MODEL 1
REMARK VINA RESULT:      -7.9      0.000      0.000
REMARK  2 active torsions:
REMARK  status: ('A' for Active; 'I' for Inactive)
REMARK    1  A    between atoms: C1_1  and  C2_2 
REMARK       I    between atoms: C1_1  and  N1_9 
REMARK    2  A    between atoms: N1_9  and  C8_10 
ROOT
ATOM      1  C1   11 d         -12.820 206.813 113.201  0.00  0.00     0.256 C 
ATOM      2  O1   11 d         -12.375 205.915 113.998  0.00  0.00    -0.267 OA
ATOM      3  N1   11 d         -12.013 207.970 112.914  0.00  0.00    -0.323 N 
ATOM      4  H6   11 d         -12.411 208.703 112.247  0.00  0.00     0.169 HD
ENDROOT
BRANCH   3   5
ATOM      5  C8   11 d         -10.661 208.277 113.443  0.00  0.00     0.036 A 
ATOM      6  C9   11 d          -9.585 208.195 112.530  0.00  0.00     0.055 A 
ATOM      7  C10  11 d          -8.265 208.463 112.925  0.00  0.00     0.058 A 
ATOM      8  C11  11 d          -7.993 208.820 114.257  0.00  0.00     0.055 A 
ATOM      9 Cl2   11 d          -6.965 208.336 111.709  0.00  0.00    -0.082 Cl
ATOM     10 Cl1   11 d          -6.335 209.168 114.815  0.00  0.00    -0.083 Cl
ATOM     11  C12  11 d          -9.046 208.908 115.177  0.00  0.00     0.028 A 
ATOM     12  C13  11 d         -10.364 208.641 114.779  0.00  0.00     0.031 A 
ENDBRANCH   3   5
BRANCH   1  13
ATOM     13  C2   11 d         -14.188 206.599 112.604  0.00  0.00     0.032 A 
ATOM     14  C3   11 d         -14.395 206.918 111.239  0.00  0.00     0.017 A 
ATOM     15  C4   11 d         -15.647 206.744 110.631  0.00  0.00     0.001 A 
ATOM     16  C5   11 d         -16.722 206.243 111.373  0.00  0.00     0.000 A 
ATOM     17  C6   11 d         -16.545 205.918 112.722  0.00  0.00     0.001 A 
ATOM     18  C7   11 d         -15.293 206.092 113.334  0.00  0.00     0.017 A 
ENDBRANCH   1  13
TORSDOF 2
ENDMDL
MODEL 2
REMARK VINA RESULT:      -7.8      3.514      7.117
REMARK  2 active torsions:
REMARK  status: ('A' for Active; 'I' for Inactive)
REMARK    1  A    between atoms: C1_1  and  C2_2 
REMARK       I    between atoms: C1_1  and  N1_9 
REMARK    2  A    between atoms: N1_9  and  C8_10 
ROOT
ATOM      1  C1   11 d         -10.392 208.198 113.636  0.00  0.00     0.256 C 
ATOM      2  O1   11 d         -11.137 208.609 114.592  0.00  0.00    -0.267 OA
ATOM      3  N1   11 d         -10.950 207.346 112.618  0.00  0.00    -0.323 N 
ATOM      4  H6   11 d         -10.304 207.017 111.832  0.00  0.00     0.169 HD
ENDROOT
BRANCH   3   5
ATOM      5  C8   11 d         -12.347 206.856 112.522  0.00  0.00     0.036 A 
ATOM      6  C9   11 d         -13.057 207.180 111.344  0.00  0.00     0.055 A 
ATOM      7  C10  11 d         -14.385 206.769 111.150  0.00  0.00     0.058 A 
ATOM      8  C11  11 d         -15.037 206.019 112.144  0.00  0.00     0.055 A 
ATOM      9 Cl2   11 d         -15.209 207.221 109.633  0.00  0.00    -0.082 Cl
ATOM     10 Cl1   11 d         -16.724 205.472 111.954  0.00  0.00    -0.083 Cl
ATOM     11  C12  11 d         -14.350 205.686 113.319  0.00  0.00     0.028 A 
ATOM     12  C13  11 d         -13.022 206.097 113.510  0.00  0.00     0.031 A 
ENDBRANCH   3   5
BRANCH   1  13
ATOM     13  C2   11 d          -8.950 208.639 113.636  0.00  0.00     0.032 A 
ATOM     14  C3   11 d          -8.129 208.289 112.535  0.00  0.00     0.017 A 
ATOM     15  C4   11 d          -6.779 208.668 112.483  0.00  0.00     0.001 A 
ATOM     16  C5   11 d          -6.219 209.408 113.528  0.00  0.00     0.000 A 
ATOM     17  C6   11 d          -7.008 209.768 114.626  0.00  0.00     0.001 A 
ATOM     18  C7   11 d          -8.358 209.390 114.682  0.00  0.00     0.017 A 
ENDBRANCH   1  13
TORSDOF 2
ENDMDL
MODEL 3
REMARK VINA RESULT:      -7.7      3.546      7.156
REMARK  2 active torsions:
REMARK  status: ('A' for Active; 'I' for Inactive)
REMARK    1  A    between atoms: C1_1  and  C2_2 
REMARK       I    between atoms: C1_1  and  N1_9 
REMARK    2  A    between atoms: N1_9  and  C8_10 
ROOT
ATOM      1  C1   11 d         -10.433 208.133 112.546  0.00  0.00     0.256 C 
ATOM      2  O1   11 d         -10.709 208.104 111.297  0.00  0.00    -0.267 OA
ATOM      3  N1   11 d         -11.441 207.758 113.504  0.00  0.00    -0.323 N 
ATOM      4  H6   11 d         -11.182 207.794 114.541  0.00  0.00     0.169 HD
ENDROOT
BRANCH   3   5
ATOM      5  C8   11 d         -12.829 207.317 113.222  0.00  0.00     0.036 A 
ATOM      6  C9   11 d         -12.982 206.178 112.400  0.00  0.00     0.055 A 
ATOM      7  C10  11 d         -14.250 205.676 112.068  0.00  0.00     0.058 A 
ATOM      8  C11  11 d         -15.403 206.313 112.557  0.00  0.00     0.055 A 
ATOM      9 Cl2   11 d         -14.353 204.233 111.024  0.00  0.00    -0.082 Cl
ATOM     10 Cl1   11 d         -17.040 205.722 112.166  0.00  0.00    -0.083 Cl
ATOM     11  C12  11 d         -15.273 207.444 113.375  0.00  0.00     0.028 A 
ATOM     12  C13  11 d         -14.005 207.942 113.706  0.00  0.00     0.031 A 
ENDBRANCH   3   5
BRANCH   1  13
ATOM     13  C2   11 d          -9.045 208.568 112.944  0.00  0.00     0.032 A 
ATOM     14  C3   11 d          -8.866 209.230 114.185  0.00  0.00     0.017 A 
ATOM     15  C4   11 d          -7.599 209.660 114.605  0.00  0.00     0.001 A 
ATOM     16  C5   11 d          -6.480 209.437 113.797  0.00  0.00     0.000 A 
ATOM     17  C6   11 d          -6.628 208.785 112.568  0.00  0.00     0.001 A 
ATOM     18  C7   11 d          -7.895 208.353 112.144  0.00  0.00     0.017 A 
ENDBRANCH   1  13
TORSDOF 2
ENDMDL
MODEL 4
REMARK VINA RESULT:      -7.7      3.649      7.413
REMARK  2 active torsions:
REMARK  status: ('A' for Active; 'I' for Inactive)
REMARK    1  A    between atoms: C1_1  and  C2_2 
REMARK       I    between atoms: C1_1  and  N1_9 
REMARK    2  A    between atoms: N1_9  and  C8_10 
ROOT
ATOM      1  C1   11 d          -9.484 208.378 112.677  0.00  0.00     0.256 C 
ATOM      2  O1   11 d          -9.954 209.005 111.665  0.00  0.00    -0.267 OA
ATOM      3  N1   11 d         -10.236 207.295 113.254  0.00  0.00    -0.323 N 
ATOM      4  H6   11 d          -9.819 206.792 114.099  0.00  0.00     0.169 HD
ENDROOT
BRANCH   3   5
ATOM      5  C8   11 d         -11.554 206.778 112.809  0.00  0.00     0.036 A 
ATOM      6  C9   11 d         -12.486 206.452 113.820  0.00  0.00     0.055 A 
ATOM      7  C10  11 d         -13.760 205.953 113.511  0.00  0.00     0.058 A 
ATOM      8  C11  11 d         -14.131 205.767 112.168  0.00  0.00     0.055 A 
ATOM      9 Cl2   11 d         -14.876 205.566 114.848  0.00  0.00    -0.082 Cl
ATOM     10 Cl1   11 d         -15.736 205.133 111.716  0.00  0.00    -0.083 Cl
ATOM     11  C12  11 d         -13.222 206.085 111.150  0.00  0.00     0.028 A 
ATOM     12  C13  11 d         -11.949 206.585 111.462  0.00  0.00     0.031 A 
ENDBRANCH   3   5
BRANCH   1  13
ATOM     13  C2   11 d          -8.145 208.823 113.212  0.00  0.00     0.032 A 
ATOM     14  C3   11 d          -6.971 208.443 112.515  0.00  0.00     0.017 A 
ATOM     15  C4   11 d          -5.699 208.824 112.968  0.00  0.00     0.001 A 
ATOM     16  C5   11 d          -5.571 209.597 114.126  0.00  0.00     0.000 A 
ATOM     17  C6   11 d          -6.714 209.987 114.832  0.00  0.00     0.001 A 
ATOM     18  C7   11 d          -7.989 209.607 114.382  0.00  0.00     0.017 A 
ENDBRANCH   1  13
TORSDOF 2
ENDMDL
MODEL 5
REMARK VINA RESULT:      -7.6      1.140      1.884
REMARK  2 active torsions:
REMARK  status: ('A' for Active; 'I' for Inactive)
REMARK    1  A    between atoms: C1_1  and  C2_2 
REMARK       I    between atoms: C1_1  and  N1_9 
REMARK    2  A    between atoms: N1_9  and  C8_10 
ROOT
ATOM      1  C1   11 d         -12.492 206.916 112.032  0.00  0.00     0.256 C 
ATOM      2  O1   11 d         -11.771 206.201 111.252  0.00  0.00    -0.267 OA
ATOM      3  N1   11 d         -11.868 207.921 112.853  0.00  0.00    -0.323 N 
ATOM      4  H6   11 d         -12.495 208.501 113.495  0.00  0.00     0.169 HD
ENDROOT
BRANCH   3   5
ATOM      5  C8   11 d         -10.424 208.259 112.919  0.00  0.00     0.036 A 
ATOM      6  C9   11 d          -9.852 208.362 114.207  0.00  0.00     0.055 A 
ATOM      7  C10  11 d          -8.497 208.680 114.385  0.00  0.00     0.058 A 
ATOM      8  C11  11 d          -7.679 208.905 113.265  0.00  0.00     0.055 A 
ATOM      9 Cl2   11 d          -7.854 208.791 116.046  0.00  0.00    -0.082 Cl
ATOM     10 Cl1   11 d          -5.951 209.314 113.431  0.00  0.00    -0.083 Cl
ATOM     11  C12  11 d          -8.227 208.806 111.979  0.00  0.00     0.028 A 
ATOM     12  C13  11 d          -9.581 208.487 111.804  0.00  0.00     0.031 A 
ENDBRANCH   3   5
BRANCH   1  13
ATOM     13  C2   11 d         -13.977 206.655 112.042  0.00  0.00     0.032 A 
ATOM     14  C3   11 d         -14.709 206.828 110.841  0.00  0.00     0.017 A 
ATOM     15  C4   11 d         -16.093 206.603 110.792  0.00  0.00     0.001 A 
ATOM     16  C5   11 d         -16.778 206.198 111.942  0.00  0.00     0.000 A 
ATOM     17  C6   11 d         -16.079 206.018 113.141  0.00  0.00     0.001 A 
ATOM     18  C7   11 d         -14.694 206.243 113.193  0.00  0.00     0.017 A 
ENDBRANCH   1  13
TORSDOF 2
ENDMDL
MODEL 6
REMARK VINA RESULT:      -7.1      3.485      4.844
REMARK  2 active torsions:
REMARK  status: ('A' for Active; 'I' for Inactive)
REMARK    1  A    between atoms: C1_1  and  C2_2 
REMARK       I    between atoms: C1_1  and  N1_9 
REMARK    2  A    between atoms: N1_9  and  C8_10 
ROOT
ATOM      1  C1   11 d          -9.394 208.739 114.006  0.00  0.00     0.256 C 
ATOM      2  O1   11 d         -10.044 209.408 114.883  0.00  0.00    -0.267 OA
ATOM      3  N1   11 d          -7.970 208.583 114.145  0.00  0.00    -0.323 N 
ATOM      4  H6   11 d          -7.454 208.020 113.397  0.00  0.00     0.169 HD
ENDROOT
BRANCH   3   5
ATOM      5  C8   11 d          -7.107 209.121 115.226  0.00  0.00     0.036 A 
ATOM      6  C9   11 d          -7.051 208.376 116.426  0.00  0.00     0.055 A 
ATOM      7  C10  11 d          -6.269 208.795 117.514  0.00  0.00     0.058 A 
ATOM      8  C11  11 d          -5.521 209.981 117.421  0.00  0.00     0.055 A 
ATOM      9 Cl2   11 d          -6.254 207.797 118.993  0.00  0.00    -0.082 Cl
ATOM     10 Cl1   11 d          -4.511 210.563 118.771  0.00  0.00    -0.083 Cl
ATOM     11  C12  11 d          -5.562 210.733 116.239  0.00  0.00     0.028 A 
ATOM     12  C13  11 d          -6.343 210.311 115.153  0.00  0.00     0.031 A 
ENDBRANCH   3   5
BRANCH   1  13
ATOM     13  C2   11 d         -10.177 208.146 112.861  0.00  0.00     0.032 A 
ATOM     14  C3   11 d         -11.190 207.196 113.146  0.00  0.00     0.017 A 
ATOM     15  C4   11 d         -11.946 206.608 112.122  0.00  0.00     0.001 A 
ATOM     16  C5   11 d         -11.711 206.958 110.788  0.00  0.00     0.000 A 
ATOM     17  C6   11 d         -10.717 207.894 110.479  0.00  0.00     0.001 A 
ATOM     18  C7   11 d          -9.958 208.484 111.502  0.00  0.00     0.017 A 
ENDBRANCH   1  13
TORSDOF 2
ENDMDL
MODEL 7
REMARK VINA RESULT:      -7.1      2.452      3.397
REMARK  2 active torsions:
REMARK  status: ('A' for Active; 'I' for Inactive)
REMARK    1  A    between atoms: C1_1  and  C2_2 
REMARK       I    between atoms: C1_1  and  N1_9 
REMARK    2  A    between atoms: N1_9  and  C8_10 
ROOT
ATOM      1  C1   11 d         -13.069 206.784 113.450  0.00  0.00     0.256 C 
ATOM      2  O1   11 d         -12.026 206.185 113.012  0.00  0.00    -0.267 OA
ATOM      3  N1   11 d         -12.992 207.538 114.674  0.00  0.00    -0.323 N 
ATOM      4  H6   11 d         -13.879 208.026 115.016  0.00  0.00     0.169 HD
ENDROOT
BRANCH   3   5
ATOM      5  C8   11 d         -11.803 207.727 115.541  0.00  0.00     0.036 A 
ATOM      6  C9   11 d         -11.774 206.996 116.751  0.00  0.00     0.055 A 
ATOM      7  C10  11 d         -10.698 207.102 117.646  0.00  0.00     0.058 A 
ATOM      8  C11  11 d          -9.619 207.951 117.345  0.00  0.00     0.055 A 
ATOM      9 Cl2   11 d         -10.740 206.145 119.152  0.00  0.00    -0.082 Cl
ATOM     10 Cl1   11 d          -8.227 208.126 118.447  0.00  0.00    -0.083 Cl
ATOM     11  C12  11 d          -9.628 208.682 116.151  0.00  0.00     0.028 A 
ATOM     12  C13  11 d         -10.704 208.574 115.257  0.00  0.00     0.031 A 
ENDBRANCH   3   5
BRANCH   1  13
ATOM     13  C2   11 d         -14.336 206.658 112.642  0.00  0.00     0.032 A 
ATOM     14  C3   11 d         -15.489 206.113 113.262  0.00  0.00     0.017 A 
ATOM     15  C4   11 d         -16.694 205.969 112.558  0.00  0.00     0.001 A 
ATOM     16  C5   11 d         -16.777 206.368 111.220  0.00  0.00     0.000 A 
ATOM     17  C6   11 d         -15.654 206.910 110.586  0.00  0.00     0.001 A 
ATOM     18  C7   11 d         -14.446 207.055 111.286  0.00  0.00     0.017 A 
ENDBRANCH   1  13
TORSDOF 2
ENDMDL
MODEL 8
REMARK VINA RESULT:      -7.0      1.094      1.693
REMARK  2 active torsions:
REMARK  status: ('A' for Active; 'I' for Inactive)
REMARK    1  A    between atoms: C1_1  and  C2_2 
REMARK       I    between atoms: C1_1  and  N1_9 
REMARK    2  A    between atoms: N1_9  and  C8_10 
ROOT
ATOM      1  C1   11 d         -12.437 206.951 112.956  0.00  0.00     0.256 C 
ATOM      2  O1   11 d         -11.592 206.001 112.817  0.00  0.00    -0.267 OA
ATOM      3  N1   11 d         -12.107 208.080 113.787  0.00  0.00    -0.323 N 
ATOM      4  H6   11 d         -12.833 208.857 113.885  0.00  0.00     0.169 HD
ENDROOT
BRANCH   3   5
ATOM      5  C8   11 d         -10.849 208.301 114.543  0.00  0.00     0.036 A 
ATOM      6  C9   11 d          -9.727 208.735 113.801  0.00  0.00     0.055 A 
ATOM      7  C10  11 d          -8.488 208.972 114.415  0.00  0.00     0.058 A 
ATOM      8  C11  11 d          -8.346 208.777 115.800  0.00  0.00     0.055 A 
ATOM      9 Cl2   11 d          -7.121 209.517 113.405  0.00  0.00    -0.082 Cl
ATOM     10 Cl1   11 d          -6.794 209.060 116.633  0.00  0.00    -0.083 Cl
ATOM     11  C12  11 d          -9.446 208.349 116.553  0.00  0.00     0.028 A 
ATOM     12  C13  11 d         -10.684 208.113 115.937  0.00  0.00     0.031 A 
ENDBRANCH   3   5
BRANCH   1  13
ATOM     13  C2   11 d         -13.752 206.827 112.227  0.00  0.00     0.032 A 
ATOM     14  C3   11 d         -14.942 206.684 112.985  0.00  0.00     0.017 A 
ATOM     15  C4   11 d         -16.192 206.560 112.361  0.00  0.00     0.001 A 
ATOM     16  C5   11 d         -16.284 206.579 110.966  0.00  0.00     0.000 A 
ATOM     17  C6   11 d         -15.126 206.720 110.194  0.00  0.00     0.001 A 
ATOM     18  C7   11 d         -13.872 206.844 110.815  0.00  0.00     0.017 A 
ENDBRANCH   1  13
TORSDOF 2
ENDMDL
MODEL 9
REMARK VINA RESULT:      -7.0      2.117      3.248
REMARK  2 active torsions:
REMARK  status: ('A' for Active; 'I' for Inactive)
REMARK    1  A    between atoms: C1_1  and  C2_2 
REMARK       I    between atoms: C1_1  and  N1_9 
REMARK    2  A    between atoms: N1_9  and  C8_10 
ROOT
ATOM      1  C1   11 d         -10.542 207.900 112.316  0.00  0.00     0.256 C 
ATOM      2  O1   11 d         -10.183 208.285 111.149  0.00  0.00    -0.267 OA
ATOM      3  N1   11 d          -9.603 207.969 113.406  0.00  0.00    -0.323 N 
ATOM      4  H6   11 d          -9.931 207.639 114.368  0.00  0.00     0.169 HD
ENDROOT
BRANCH   3   5
ATOM      5  C8   11 d          -8.202 208.453 113.356  0.00  0.00     0.036 A 
ATOM      6  C9   11 d          -7.798 209.342 114.378  0.00  0.00     0.055 A 
ATOM      7  C10  11 d          -6.496 209.864 114.425  0.00  0.00     0.058 A 
ATOM      8  C11  11 d          -5.562 209.502 113.439  0.00  0.00     0.055 A 
ATOM      9 Cl2   11 d          -6.068 210.981 115.749  0.00  0.00    -0.082 Cl
ATOM     10 Cl1   11 d          -3.894 210.135 113.447  0.00  0.00    -0.083 Cl
ATOM     11  C12  11 d          -5.942 208.621 112.418  0.00  0.00     0.028 A 
ATOM     12  C13  11 d          -7.244 208.100 112.374  0.00  0.00     0.031 A 
ENDBRANCH   3   5
BRANCH   1  13
ATOM     13  C2   11 d         -11.951 207.388 112.479  0.00  0.00     0.032 A 
ATOM     14  C3   11 d         -12.723 207.850 113.575  0.00  0.00     0.017 A 
ATOM     15  C4   11 d         -14.037 207.405 113.778  0.00  0.00     0.001 A 
ATOM     16  C5   11 d         -14.614 206.491 112.890  0.00  0.00     0.000 A 
ATOM     17  C6   11 d         -13.874 206.021 111.799  0.00  0.00     0.001 A 
ATOM     18  C7   11 d         -12.558 206.463 111.593  0.00  0.00     0.017 A 
ENDBRANCH   1  13
TORSDOF 2
ENDMDL
MODEL 10
REMARK VINA RESULT:      -7.0      5.383      6.644
REMARK  2 active torsions:
REMARK  status: ('A' for Active; 'I' for Inactive)
REMARK    1  A    between atoms: C1_1  and  C2_2 
REMARK       I    between atoms: C1_1  and  N1_9 
REMARK    2  A    between atoms: N1_9  and  C8_10 
ROOT
ATOM      1  C1   11 d         -14.916 205.929 114.169  0.00  0.00     0.256 C 
ATOM      2  O1   11 d         -16.153 206.010 114.491  0.00  0.00    -0.267 OA
ATOM      3  N1   11 d         -13.952 205.515 115.155  0.00  0.00    -0.323 N 
ATOM      4  H6   11 d         -12.927 205.458 114.858  0.00  0.00     0.169 HD
ENDROOT
BRANCH   3   5
ATOM      5  C8   11 d         -14.212 205.149 116.569  0.00  0.00     0.036 A 
ATOM      6  C9   11 d         -14.924 203.949 116.796  0.00  0.00     0.055 A 
ATOM      7  C10  11 d         -15.227 203.510 118.094  0.00  0.00     0.058 A 
ATOM      8  C11  11 d         -14.820 204.271 119.203  0.00  0.00     0.055 A 
ATOM      9 Cl2   11 d         -16.131 201.983 118.293  0.00  0.00    -0.082 Cl
ATOM     10 Cl1   11 d         -15.179 203.763 120.874  0.00  0.00    -0.083 Cl
ATOM     11  C12  11 d         -14.112 205.463 118.999  0.00  0.00     0.028 A 
ATOM     12  C13  11 d         -13.810 205.900 117.701  0.00  0.00     0.031 A 
ENDBRANCH   3   5
BRANCH   1  13
ATOM     13  C2   11 d         -14.541 206.279 112.751  0.00  0.00     0.032 A 
ATOM     14  C3   11 d         -15.570 206.413 111.786  0.00  0.00     0.017 A 
ATOM     15  C4   11 d         -15.279 206.734 110.451  0.00  0.00     0.001 A 
ATOM     16  C5   11 d         -13.954 206.931 110.050  0.00  0.00     0.000 A 
ATOM     17  C6   11 d         -12.919 206.805 110.984  0.00  0.00     0.001 A 
ATOM     18  C7   11 d         -13.206 206.484 112.320  0.00  0.00     0.017 A 
ENDBRANCH   1  13
TORSDOF 2
ENDMDL
MODEL 11
REMARK VINA RESULT:      -6.8      5.597      7.286
REMARK  2 active torsions:
REMARK  status: ('A' for Active; 'I' for Inactive)
REMARK    1  A    between atoms: C1_1  and  C2_2 
REMARK       I    between atoms: C1_1  and  N1_9 
REMARK    2  A    between atoms: N1_9  and  C8_10 
ROOT
ATOM      1  C1   11 d         -13.874 205.803 115.002  0.00  0.00     0.256 C 
ATOM      2  O1   11 d         -15.136 206.000 114.921  0.00  0.00    -0.267 OA
ATOM      3  N1   11 d         -13.331 205.144 116.161  0.00  0.00    -0.323 N 
ATOM      4  H6   11 d         -12.274 204.995 116.201  0.00  0.00     0.169 HD
ENDROOT
BRANCH   3   5
ATOM      5  C8   11 d         -14.078 204.632 117.337  0.00  0.00     0.036 A 
ATOM      6  C9   11 d         -13.974 205.379 118.532  0.00  0.00     0.055 A 
ATOM      7  C10  11 d         -14.637 204.984 119.704  0.00  0.00     0.058 A 
ATOM      8  C11  11 d         -15.424 203.820 119.704  0.00  0.00     0.055 A 
ATOM      9 Cl2   11 d         -14.453 205.985 121.171  0.00  0.00    -0.082 Cl
ATOM     10 Cl1   11 d         -16.287 203.269 121.164  0.00  0.00    -0.083 Cl
ATOM     11  C12  11 d         -15.541 203.066 118.528  0.00  0.00     0.028 A 
ATOM     12  C13  11 d         -14.878 203.464 117.358  0.00  0.00     0.031 A 
ENDBRANCH   3   5
BRANCH   1  13
ATOM     13  C2   11 d         -13.019 206.285 113.856  0.00  0.00     0.032 A 
ATOM     14  C3   11 d         -13.486 206.099 112.531  0.00  0.00     0.017 A 
ATOM     15  C4   11 d         -12.731 206.522 111.427  0.00  0.00     0.001 A 
ATOM     16  C5   11 d         -11.494 207.145 111.621  0.00  0.00     0.000 A 
ATOM     17  C6   11 d         -11.011 207.342 112.919  0.00  0.00     0.001 A 
ATOM     18  C7   11 d         -11.763 206.919 114.027  0.00  0.00     0.017 A 
ENDBRANCH   1  13
TORSDOF 2
ENDMDL
MODEL 12
REMARK VINA RESULT:      -6.7      4.535      5.937
REMARK  2 active torsions:
REMARK  status: ('A' for Active; 'I' for Inactive)
REMARK    1  A    between atoms: C1_1  and  C2_2 
REMARK       I    between atoms: C1_1  and  N1_9 
REMARK    2  A    between atoms: N1_9  and  C8_10 
ROOT
ATOM      1  C1   11 d         -13.340 205.026 116.553  0.00  0.00     0.256 C 
ATOM      2  O1   11 d         -12.103 204.699 116.534  0.00  0.00    -0.267 OA
ATOM      3  N1   11 d         -13.904 205.734 115.433  0.00  0.00    -0.323 N 
ATOM      4  H6   11 d         -14.939 205.996 115.477  0.00  0.00     0.169 HD
ENDROOT
BRANCH   3   5
ATOM      5  C8   11 d         -13.206 206.156 114.193  0.00  0.00     0.036 A 
ATOM      6  C9   11 d         -13.917 206.007 112.980  0.00  0.00     0.055 A 
ATOM      7  C10  11 d         -13.351 206.372 111.749  0.00  0.00     0.058 A 
ATOM      8  C11  11 d         -12.048 206.898 111.706  0.00  0.00     0.055 A 
ATOM      9 Cl2   11 d         -14.316 206.151 110.264  0.00  0.00    -0.082 Cl
ATOM     10 Cl1   11 d         -11.278 207.377 110.170  0.00  0.00    -0.083 Cl
ATOM     11  C12  11 d         -11.328 207.055 112.898  0.00  0.00     0.028 A 
ATOM     12  C13  11 d         -11.896 206.691 114.127  0.00  0.00     0.031 A 
ENDBRANCH   3   5
BRANCH   1  13
ATOM     13  C2   11 d         -14.145 204.643 117.770  0.00  0.00     0.032 A 
ATOM     14  C3   11 d         -14.952 203.480 117.716  0.00  0.00     0.017 A 
ATOM     15  C4   11 d         -15.725 203.078 118.816  0.00  0.00     0.001 A 
ATOM     16  C5   11 d         -15.706 203.827 119.996  0.00  0.00     0.000 A 
ATOM     17  C6   11 d         -14.916 204.979 120.077  0.00  0.00     0.001 A 
ATOM     18  C7   11 d         -14.142 205.385 118.978  0.00  0.00     0.017 A 
ENDBRANCH   1  13
TORSDOF 2
ENDMDL
MODEL 13
REMARK VINA RESULT:      -6.6      3.029      3.734
REMARK  2 active torsions:
REMARK  status: ('A' for Active; 'I' for Inactive)
REMARK    1  A    between atoms: C1_1  and  C2_2 
REMARK       I    between atoms: C1_1  and  N1_9 
REMARK    2  A    between atoms: N1_9  and  C8_10 
ROOT
ATOM      1  C1   11 d         -12.986 206.471 113.678  0.00  0.00     0.256 C 
ATOM      2  O1   11 d         -11.800 206.055 113.434  0.00  0.00    -0.267 OA
ATOM      3  N1   11 d         -13.372 206.760 115.034  0.00  0.00    -0.323 N 
ATOM      4  H6   11 d         -14.369 207.104 115.207  0.00  0.00     0.169 HD
ENDROOT
BRANCH   3   5
ATOM      5  C8   11 d         -12.535 206.635 116.253  0.00  0.00     0.036 A 
ATOM      6  C9   11 d         -11.300 207.322 116.251  0.00  0.00     0.055 A 
ATOM      7  C10  11 d         -10.430 207.270 117.351  0.00  0.00     0.058 A 
ATOM      8  C11  11 d         -10.781 206.520 118.486  0.00  0.00     0.055 A 
ATOM      9 Cl2   11 d          -8.889 208.167 117.267  0.00  0.00    -0.082 Cl
ATOM     10 Cl1   11 d          -9.714 206.416 119.911  0.00  0.00    -0.083 Cl
ATOM     11  C12  11 d         -12.002 205.832 118.508  0.00  0.00     0.028 A 
ATOM     12  C13  11 d         -12.871 205.887 117.408  0.00  0.00     0.031 A 
ENDBRANCH   3   5
BRANCH   1  13
ATOM     13  C2   11 d         -13.922 206.635 112.506  0.00  0.00     0.032 A 
ATOM     14  C3   11 d         -13.378 206.670 111.198  0.00  0.00     0.017 A 
ATOM     15  C4   11 d         -14.200 206.824 110.071  0.00  0.00     0.001 A 
ATOM     16  C5   11 d         -15.585 206.944 110.225  0.00  0.00     0.000 A 
ATOM     17  C6   11 d         -16.148 206.912 111.506  0.00  0.00     0.001 A 
ATOM     18  C7   11 d         -15.328 206.758 112.636  0.00  0.00     0.017 A 
ENDBRANCH   1  13
TORSDOF 2
ENDMDL
MODEL 14
REMARK VINA RESULT:      -6.5     13.617     16.643
REMARK  2 active torsions:
REMARK  status: ('A' for Active; 'I' for Inactive)
REMARK    1  A    between atoms: C1_1  and  C2_2 
REMARK       I    between atoms: C1_1  and  N1_9 
REMARK    2  A    between atoms: N1_9  and  C8_10 
ROOT
ATOM      1  C1   11 d          -9.275 216.866 125.115  0.00  0.00     0.256 C 
ATOM      2  O1   11 d          -8.606 215.813 125.405  0.00  0.00    -0.267 OA
ATOM      3  N1   11 d         -10.689 216.762 124.869  0.00  0.00    -0.323 N 
ATOM      4  H6   11 d         -11.221 217.657 124.628  0.00  0.00     0.169 HD
ENDROOT
BRANCH   3   5
ATOM      5  C8   11 d         -11.521 215.534 124.910  0.00  0.00     0.036 A 
ATOM      6  C9   11 d         -11.937 215.088 126.185  0.00  0.00     0.055 A 
ATOM      7  C10  11 d         -12.724 213.936 126.339  0.00  0.00     0.058 A 
ATOM      8  C11  11 d         -13.114 213.199 125.207  0.00  0.00     0.055 A 
ATOM      9 Cl2   11 d         -13.206 213.441 127.985  0.00  0.00    -0.082 Cl
ATOM     10 Cl1   11 d         -14.112 211.727 125.343  0.00  0.00    -0.083 Cl
ATOM     11  C12  11 d         -12.714 213.626 123.934  0.00  0.00     0.028 A 
ATOM     12  C13  11 d         -11.928 214.778 123.783  0.00  0.00     0.031 A 
ENDBRANCH   3   5
BRANCH   1  13
ATOM     13  C2   11 d          -8.524 218.172 125.048  0.00  0.00     0.032 A 
ATOM     14  C3   11 d          -8.510 219.011 126.190  0.00  0.00     0.017 A 
ATOM     15  C4   11 d          -7.832 220.239 126.184  0.00  0.00     0.001 A 
ATOM     16  C5   11 d          -7.150 220.657 125.037  0.00  0.00     0.000 A 
ATOM     17  C6   11 d          -7.147 219.847 123.895  0.00  0.00     0.001 A 
ATOM     18  C7   11 d          -7.825 218.618 123.898  0.00  0.00     0.017 A 
ENDBRANCH   1  13
TORSDOF 2
ENDMDL
MODEL 15
REMARK VINA RESULT:      -6.5      3.382      4.850
REMARK  2 active torsions:
REMARK  status: ('A' for Active; 'I' for Inactive)
REMARK    1  A    between atoms: C1_1  and  C2_2 
REMARK       I    between atoms: C1_1  and  N1_9 
REMARK    2  A    between atoms: N1_9  and  C8_10 
ROOT
ATOM      1  C1   11 d          -9.865 208.510 114.463  0.00  0.00     0.256 C 
ATOM      2  O1   11 d          -9.279 209.648 114.487  0.00  0.00    -0.267 OA
ATOM      3  N1   11 d          -9.947 207.728 115.669  0.00  0.00    -0.323 N 
ATOM      4  H6   11 d         -10.441 206.782 115.618  0.00  0.00     0.169 HD
ENDROOT
BRANCH   3   5
ATOM      5  C8   11 d          -9.418 208.085 117.009  0.00  0.00     0.036 A 
ATOM      6  C9   11 d          -8.015 208.047 117.170  0.00  0.00     0.055 A 
ATOM      7  C10  11 d          -7.408 208.363 118.396  0.00  0.00     0.058 A 
ATOM      8  C11  11 d          -8.204 208.725 119.497  0.00  0.00     0.055 A 
ATOM      9 Cl2   11 d          -5.629 208.291 118.515  0.00  0.00    -0.082 Cl
ATOM     10 Cl1   11 d          -7.488 209.133 121.079  0.00  0.00    -0.083 Cl
ATOM     11  C12  11 d          -9.597 208.769 119.357  0.00  0.00     0.028 A 
ATOM     12  C13  11 d         -10.200 208.454 118.130  0.00  0.00     0.031 A 
ENDBRANCH   3   5
BRANCH   1  13
ATOM     13  C2   11 d         -10.441 208.050 113.147  0.00  0.00     0.032 A 
ATOM     14  C3   11 d          -9.883 208.552 111.944  0.00  0.00     0.017 A 
ATOM     15  C4   11 d         -10.381 208.162 110.692  0.00  0.00     0.001 A 
ATOM     16  C5   11 d         -11.447 207.261 110.611  0.00  0.00     0.000 A 
ATOM     17  C6   11 d         -12.016 206.750 111.783  0.00  0.00     0.001 A 
ATOM     18  C7   11 d         -11.520 207.137 113.038  0.00  0.00     0.017 A 
ENDBRANCH   1  13
TORSDOF 2
ENDMDL
MODEL 16
REMARK VINA RESULT:      -6.5      5.570      7.659
REMARK  2 active torsions:
REMARK  status: ('A' for Active; 'I' for Inactive)
REMARK    1  A    between atoms: C1_1  and  C2_2 
REMARK       I    between atoms: C1_1  and  N1_9 
REMARK    2  A    between atoms: N1_9  and  C8_10 
ROOT
ATOM      1  C1   11 d          -6.630 210.054 115.422  0.00  0.00     0.256 C 
ATOM      2  O1   11 d          -6.036 211.127 115.056  0.00  0.00    -0.267 OA
ATOM      3  N1   11 d          -6.306 209.462 116.694  0.00  0.00    -0.323 N 
ATOM      4  H6   11 d          -6.817 208.566 116.972  0.00  0.00     0.169 HD
ENDROOT
BRANCH   3   5
ATOM      5  C8   11 d          -5.326 209.956 117.692  0.00  0.00     0.036 A 
ATOM      6  C9   11 d          -5.789 210.916 118.620  0.00  0.00     0.055 A 
ATOM      7  C10  11 d          -4.945 211.452 119.605  0.00  0.00     0.058 A 
ATOM      8  C11  11 d          -3.606 211.034 119.680  0.00  0.00     0.055 A 
ATOM      9 Cl2   11 d          -5.611 212.660 120.738  0.00  0.00    -0.082 Cl
ATOM     10 Cl1   11 d          -2.488 211.683 120.909  0.00  0.00    -0.083 Cl
ATOM     11  C12  11 d          -3.127 210.083 118.770  0.00  0.00     0.028 A 
ATOM     12  C13  11 d          -3.973 209.548 117.788  0.00  0.00     0.031 A 
ENDBRANCH   3   5
BRANCH   1  13
ATOM     13  C2   11 d          -7.650 209.466 114.479  0.00  0.00     0.032 A 
ATOM     14  C3   11 d          -7.272 209.212 113.137  0.00  0.00     0.017 A 
ATOM     15  C4   11 d          -8.179 208.669 112.215  0.00  0.00     0.001 A 
ATOM     16  C5   11 d          -9.485 208.366 112.613  0.00  0.00     0.000 A 
ATOM     17  C6   11 d          -9.884 208.606 113.933  0.00  0.00     0.001 A 
ATOM     18  C7   11 d          -8.978 209.149 114.858  0.00  0.00     0.017 A 
ENDBRANCH   1  13
TORSDOF 2
ENDMDL
MODEL 17
REMARK VINA RESULT:      -6.4      4.336      5.836
REMARK  2 active torsions:
REMARK  status: ('A' for Active; 'I' for Inactive)
REMARK    1  A    between atoms: C1_1  and  C2_2 
REMARK       I    between atoms: C1_1  and  N1_9 
REMARK    2  A    between atoms: N1_9  and  C8_10 
ROOT
ATOM      1  C1   11 d         -11.808 207.468 114.369  0.00  0.00     0.256 C 
ATOM      2  O1   11 d         -11.684 208.533 115.067  0.00  0.00    -0.267 OA
ATOM      3  N1   11 d         -12.251 206.252 115.001  0.00  0.00    -0.323 N 
ATOM      4  H6   11 d         -12.344 205.378 114.393  0.00  0.00     0.169 HD
ENDROOT
BRANCH   3   5
ATOM      5  C8   11 d         -12.604 206.059 116.429  0.00  0.00     0.036 A 
ATOM      6  C9   11 d         -11.537 206.066 117.356  0.00  0.00     0.055 A 
ATOM      7  C10  11 d         -11.758 205.888 118.730  0.00  0.00     0.058 A 
ATOM      8  C11  11 d         -13.066 205.697 119.209  0.00  0.00     0.055 A 
ATOM      9 Cl2   11 d         -10.355 205.910 119.833  0.00  0.00    -0.082 Cl
ATOM     10 Cl1   11 d         -13.405 205.465 120.945  0.00  0.00    -0.083 Cl
ATOM     11  C12  11 d         -14.137 205.689 118.307  0.00  0.00     0.028 A 
ATOM     12  C13  11 d         -13.914 205.867 116.934  0.00  0.00     0.031 A 
ENDBRANCH   3   5
BRANCH   1  13
ATOM     13  C2   11 d         -11.475 207.554 112.900  0.00  0.00     0.032 A 
ATOM     14  C3   11 d         -10.338 208.299 112.501  0.00  0.00     0.017 A 
ATOM     15  C4   11 d          -9.982 208.417 111.149  0.00  0.00     0.001 A 
ATOM     16  C5   11 d         -10.753 207.792 110.164  0.00  0.00     0.000 A 
ATOM     17  C6   11 d         -11.880 207.048 110.531  0.00  0.00     0.001 A 
ATOM     18  C7   11 d         -12.240 206.928 111.883  0.00  0.00     0.017 A 
ENDBRANCH   1  13
TORSDOF 2
ENDMDL
MODEL 18
REMARK VINA RESULT:      -6.4      4.231      5.319
REMARK  2 active torsions:
REMARK  status: ('A' for Active; 'I' for Inactive)
REMARK    1  A    between atoms: C1_1  and  C2_2 
REMARK       I    between atoms: C1_1  and  N1_9 
REMARK    2  A    between atoms: N1_9  and  C8_10 
ROOT
ATOM      1  C1   11 d         -13.414 204.949 116.956  0.00  0.00     0.256 C 
ATOM      2  O1   11 d         -12.233 204.959 117.451  0.00  0.00    -0.267 OA
ATOM      3  N1   11 d         -13.676 205.655 115.729  0.00  0.00    -0.323 N 
ATOM      4  H6   11 d         -14.671 205.629 115.341  0.00  0.00     0.169 HD
ENDROOT
BRANCH   3   5
ATOM      5  C8   11 d         -12.709 206.433 114.916  0.00  0.00     0.036 A 
ATOM      6  C9   11 d         -12.713 206.198 113.522  0.00  0.00     0.055 A 
ATOM      7  C10  11 d         -11.838 206.877 112.661  0.00  0.00     0.058 A 
ATOM      8  C11  11 d         -10.931 207.815 113.182  0.00  0.00     0.055 A 
ATOM      9 Cl2   11 d         -11.909 206.520 110.913  0.00  0.00    -0.082 Cl
ATOM     10 Cl1   11 d          -9.795 208.706 112.135  0.00  0.00    -0.083 Cl
ATOM     11  C12  11 d         -10.912 208.063 114.561  0.00  0.00     0.028 A 
ATOM     12  C13  11 d         -11.788 207.384 115.420  0.00  0.00     0.031 A 
ENDBRANCH   3   5
BRANCH   1  13
ATOM     13  C2   11 d         -14.477 204.184 117.705  0.00  0.00     0.032 A 
ATOM     14  C3   11 d         -14.692 204.478 119.075  0.00  0.00     0.017 A 
ATOM     15  C4   11 d         -15.663 203.795 119.822  0.00  0.00     0.001 A 
ATOM     16  C5   11 d         -16.445 202.806 119.218  0.00  0.00     0.000 A 
ATOM     17  C6   11 d         -16.254 202.497 117.867  0.00  0.00     0.001 A 
ATOM     18  C7   11 d         -15.282 203.177 117.116  0.00  0.00     0.017 A 
ENDBRANCH   1  13
TORSDOF 2
ENDMDL
MODEL 19
REMARK VINA RESULT:      -6.3      4.804      9.056
REMARK  2 active torsions:
REMARK  status: ('A' for Active; 'I' for Inactive)
REMARK    1  A    between atoms: C1_1  and  C2_2 
REMARK       I    between atoms: C1_1  and  N1_9 
REMARK    2  A    between atoms: N1_9  and  C8_10 
ROOT
ATOM      1  C1   11 d          -5.925 209.293 116.431  0.00  0.00     0.256 C 
ATOM      2  O1   11 d          -5.624 208.096 116.091  0.00  0.00    -0.267 OA
ATOM      3  N1   11 d          -6.952 209.999 115.711  0.00  0.00    -0.323 N 
ATOM      4  H6   11 d          -7.180 210.998 116.017  0.00  0.00     0.169 HD
ENDROOT
BRANCH   3   5
ATOM      5  C8   11 d          -7.754 209.499 114.567  0.00  0.00     0.036 A 
ATOM      6  C9   11 d          -9.078 209.091 114.847  0.00  0.00     0.055 A 
ATOM      7  C10  11 d          -9.922 208.599 113.840  0.00  0.00     0.058 A 
ATOM      8  C11  11 d          -9.453 208.504 112.519  0.00  0.00     0.055 A 
ATOM      9 Cl2   11 d         -11.580 208.104 114.279  0.00  0.00    -0.082 Cl
ATOM     10 Cl1   11 d         -10.481 207.884 111.200  0.00  0.00    -0.083 Cl
ATOM     11  C12  11 d          -8.144 208.905 112.221  0.00  0.00     0.028 A 
ATOM     12  C13  11 d          -7.303 209.397 113.229  0.00  0.00     0.031 A 
ENDBRANCH   3   5
BRANCH   1  13
ATOM     13  C2   11 d          -5.168 209.900 117.587  0.00  0.00     0.032 A 
ATOM     14  C3   11 d          -3.826 209.501 117.809  0.00  0.00     0.017 A 
ATOM     15  C4   11 d          -3.076 210.028 118.870  0.00  0.00     0.001 A 
ATOM     16  C5   11 d          -3.647 210.969 119.733  0.00  0.00     0.000 A 
ATOM     17  C6   11 d          -4.969 211.381 119.535  0.00  0.00     0.001 A 
ATOM     18  C7   11 d          -5.724 210.855 118.474  0.00  0.00     0.017 A 
ENDBRANCH   1  13
TORSDOF 2
ENDMDL
MODEL 20
REMARK VINA RESULT:      -6.2      5.521      7.223
REMARK  2 active torsions:
REMARK  status: ('A' for Active; 'I' for Inactive)
REMARK    1  A    between atoms: C1_1  and  C2_2 
REMARK       I    between atoms: C1_1  and  N1_9 
REMARK    2  A    between atoms: N1_9  and  C8_10 
ROOT
ATOM      1  C1   11 d         -14.681 204.418 117.817  0.00  0.00     0.256 C 
ATOM      2  O1   11 d         -14.724 203.305 117.187  0.00  0.00    -0.267 OA
ATOM      3  N1   11 d         -14.486 205.642 117.083  0.00  0.00    -0.323 N 
ATOM      4  H6   11 d         -14.453 206.556 117.637  0.00  0.00     0.169 HD
ENDROOT
BRANCH   3   5
ATOM      5  C8   11 d         -14.322 205.794 115.617  0.00  0.00     0.036 A 
ATOM      6  C9   11 d         -13.007 205.996 115.140  0.00  0.00     0.055 A 
ATOM      7  C10  11 d         -12.739 206.155 113.772  0.00  0.00     0.058 A 
ATOM      8  C11  11 d         -13.793 206.116 112.843  0.00  0.00     0.055 A 
ATOM      9 Cl2   11 d         -11.049 206.405 113.254  0.00  0.00    -0.082 Cl
ATOM     10 Cl1   11 d         -13.511 206.315 111.093  0.00  0.00    -0.083 Cl
ATOM     11  C12  11 d         -15.104 205.916 113.296  0.00  0.00     0.028 A 
ATOM     12  C13  11 d         -15.369 205.757 114.664  0.00  0.00     0.031 A 
ENDBRANCH   3   5
BRANCH   1  13
ATOM     13  C2   11 d         -14.839 204.378 119.317  0.00  0.00     0.032 A 
ATOM     14  C3   11 d         -14.118 205.310 120.104  0.00  0.00     0.017 A 
ATOM     15  C4   11 d         -14.223 205.316 121.503  0.00  0.00     0.001 A 
ATOM     16  C5   11 d         -15.051 204.393 122.148  0.00  0.00     0.000 A 
ATOM     17  C6   11 d         -15.774 203.462 121.394  0.00  0.00     0.001 A 
ATOM     18  C7   11 d         -15.672 203.452 119.994  0.00  0.00     0.017 A 
ENDBRANCH   1  13
TORSDOF 2
ENDMDL
