MODEL 1
REMARK VINA RESULT:      -8.3      0.000      0.000
REMARK  3 active torsions:
REMARK  status: ('A' for Active; 'I' for Inactive)
REMARK    1  A    between atoms: C2_2  and  O1_11 
REMARK       I    between atoms: C3_4  and  N5_10 
REMARK    2  A    between atoms: O1_11  and  C6_12 
REMARK    3  A    between atoms: C6_12  and  C7_13 
ROOT
ATOM      1  C1   11 d          -9.894 208.395 113.086  0.00  0.00     0.158 A 
ATOM      2  C2   11 d         -11.127 207.758 113.241  0.00  0.00     0.216 A 
ATOM      3  N1   11 d         -11.695 207.777 114.491  0.00  0.00    -0.036 NA
ATOM      4  C3   11 d         -11.103 208.418 115.550  0.00  0.00     0.724 A 
ATOM      5  N2   11 d          -9.904 209.060 115.384  0.00  0.00    -0.043 NA
ATOM      6  C4   11 d          -9.325 209.035 114.158  0.00  0.00     0.181 A 
ATOM      7  N3   11 d          -8.169 209.576 113.749  0.00  0.00    -0.333 N 
ATOM      8  C5   11 d          -8.024 209.269 112.433  0.00  0.00     0.209 A 
ATOM      9  N4   11 d          -9.088 208.536 112.013  0.00  0.00    -0.236 NA
ATOM     10  N5   11 d         -11.710 208.410 116.778  0.00  0.00    -0.231 N 
ATOM     11  H1   11 d          -7.507 210.133 114.346  0.00  0.00     0.168 HD
ATOM     12  H3   11 d         -12.578 207.942 116.903  0.00  0.00     0.174 HD
ATOM     13  H4   11 d         -11.290 208.869 117.553  0.00  0.00     0.174 HD
ENDROOT
BRANCH   2  14
ATOM     14  O1   11 d         -11.701 207.063 112.141  0.00  0.00    -0.332 OA
BRANCH  14  15
ATOM     15  C6   11 d         -12.927 206.361 112.494  0.00  0.00     0.182 C 
BRANCH  15  16
ATOM     16  C7   11 d         -13.569 205.771 111.224  0.00  0.00     0.010 C 
ATOM     17  C8   11 d         -14.013 206.859 110.220  0.00  0.00     0.007 C 
ATOM     18  C9   11 d         -15.286 207.596 110.662  0.00  0.00     0.000 C 
ATOM     19  C10  11 d         -16.431 206.613 110.939  0.00  0.00     0.000 C 
ATOM     20  C11  11 d         -16.026 205.537 111.955  0.00  0.00     0.000 C 
ATOM     21  C12  11 d         -14.741 204.809 111.528  0.00  0.00     0.007 C 
ENDBRANCH  15  16
ENDBRANCH  14  15
ENDBRANCH   2  14
TORSDOF 3
ENDMDL
MODEL 2
REMARK VINA RESULT:      -8.2      0.842      2.640
REMARK  3 active torsions:
REMARK  status: ('A' for Active; 'I' for Inactive)
REMARK    1  A    between atoms: C2_2  and  O1_11 
REMARK       I    between atoms: C3_4  and  N5_10 
REMARK    2  A    between atoms: O1_11  and  C6_12 
REMARK    3  A    between atoms: C6_12  and  C7_13 
ROOT
ATOM      1  C1   11 d         -10.690 207.881 114.511  0.00  0.00     0.158 A 
ATOM      2  C2   11 d         -10.684 207.440 113.185  0.00  0.00     0.216 A 
ATOM      3  N1   11 d          -9.818 208.060 112.318  0.00  0.00    -0.036 NA
ATOM      4  C3   11 d          -8.963 209.053 112.727  0.00  0.00     0.724 A 
ATOM      5  N2   11 d          -8.961 209.463 114.034  0.00  0.00    -0.043 NA
ATOM      6  C4   11 d          -9.822 208.870 114.898  0.00  0.00     0.181 A 
ATOM      7  N3   11 d         -10.010 209.096 116.206  0.00  0.00    -0.333 N 
ATOM      8  C5   11 d         -10.991 208.252 116.622  0.00  0.00     0.209 A 
ATOM      9  N4   11 d         -11.419 207.495 115.579  0.00  0.00    -0.236 NA
ATOM     10  N5   11 d          -8.118 209.639 111.824  0.00  0.00    -0.231 N 
ATOM     11  H1   11 d          -9.488 209.797 116.788  0.00  0.00     0.168 HD
ATOM     12  H3   11 d          -8.120 209.346 110.874  0.00  0.00     0.174 HD
ATOM     13  H4   11 d          -7.495 210.361 112.108  0.00  0.00     0.174 HD
ENDROOT
BRANCH   2  14
ATOM     14  O1   11 d         -11.608 206.441 112.774  0.00  0.00    -0.332 OA
BRANCH  14  15
ATOM     15  C6   11 d         -12.860 206.997 112.281  0.00  0.00     0.182 C 
BRANCH  15  16
ATOM     16  C7   11 d         -13.509 206.011 111.292  0.00  0.00     0.010 C 
ATOM     17  C8   11 d         -14.152 206.719 110.078  0.00  0.00     0.007 C 
ATOM     18  C9   11 d         -15.473 207.421 110.426  0.00  0.00     0.000 C 
ATOM     19  C10  11 d         -16.466 206.448 111.076  0.00  0.00     0.000 C 
ATOM     20  C11  11 d         -15.863 205.751 112.302  0.00  0.00     0.000 C 
ATOM     21  C12  11 d         -14.530 205.062 111.964  0.00  0.00     0.007 C 
ENDBRANCH  15  16
ENDBRANCH  14  15
ENDBRANCH   2  14
TORSDOF 3
ENDMDL
MODEL 3
REMARK VINA RESULT:      -8.0      1.935      2.992
REMARK  3 active torsions:
REMARK  status: ('A' for Active; 'I' for Inactive)
REMARK    1  A    between atoms: C2_2  and  O1_11 
REMARK       I    between atoms: C3_4  and  N5_10 
REMARK    2  A    between atoms: O1_11  and  C6_12 
REMARK    3  A    between atoms: C6_12  and  C7_13 
ROOT
ATOM      1  C1   11 d         -12.497 206.714 114.466  0.00  0.00     0.158 A 
ATOM      2  C2   11 d         -13.767 206.380 114.942  0.00  0.00     0.216 A 
ATOM      3  N1   11 d         -14.103 206.816 116.200  0.00  0.00    -0.036 NA
ATOM      4  C3   11 d         -13.249 207.574 116.961  0.00  0.00     0.724 A 
ATOM      5  N2   11 d         -12.014 207.914 116.476  0.00  0.00    -0.043 NA
ATOM      6  C4   11 d         -11.663 207.478 115.241  0.00  0.00     0.181 A 
ATOM      7  N3   11 d         -10.526 207.672 114.558  0.00  0.00    -0.333 N 
ATOM      8  C5   11 d         -10.656 207.027 113.369  0.00  0.00     0.209 A 
ATOM      9  N4   11 d         -11.874 206.429 113.302  0.00  0.00    -0.236 NA
ATOM     10  N5   11 d         -13.631 207.984 118.210  0.00  0.00    -0.231 N 
ATOM     11  H1   11 d          -9.696 208.223 114.893  0.00  0.00     0.168 HD
ATOM     12  H3   11 d         -14.526 207.736 118.566  0.00  0.00     0.174 HD
ATOM     13  H4   11 d         -13.021 208.533 118.772  0.00  0.00     0.174 HD
ENDROOT
BRANCH   2  14
ATOM     14  O1   11 d         -14.618 205.557 114.155  0.00  0.00    -0.332 OA
BRANCH  14  15
ATOM     15  C6   11 d         -15.722 206.295 113.557  0.00  0.00     0.182 C 
BRANCH  15  16
ATOM     16  C7   11 d         -16.135 205.623 112.234  0.00  0.00     0.010 C 
ATOM     17  C8   11 d         -14.997 204.784 111.610  0.00  0.00     0.007 C 
ATOM     18  C9   11 d         -13.903 205.648 110.965  0.00  0.00     0.000 C 
ATOM     19  C10  11 d         -14.493 206.615 109.932  0.00  0.00     0.000 C 
ATOM     20  C11  11 d         -15.607 207.482 110.531  0.00  0.00     0.000 C 
ATOM     21  C12  11 d         -16.697 206.624 111.196  0.00  0.00     0.007 C 
ENDBRANCH  15  16
ENDBRANCH  14  15
ENDBRANCH   2  14
TORSDOF 3
ENDMDL
MODEL 4
REMARK VINA RESULT:      -7.8      3.687      5.324
REMARK  3 active torsions:
REMARK  status: ('A' for Active; 'I' for Inactive)
REMARK    1  A    between atoms: C2_2  and  O1_11 
REMARK       I    between atoms: C3_4  and  N5_10 
REMARK    2  A    between atoms: O1_11  and  C6_12 
REMARK    3  A    between atoms: C6_12  and  C7_13 
ROOT
ATOM      1  C1   11 d         -14.635 204.766 116.764  0.00  0.00     0.158 A 
ATOM      2  C2   11 d         -14.447 205.729 115.771  0.00  0.00     0.216 A 
ATOM      3  N1   11 d         -13.698 206.833 116.097  0.00  0.00    -0.036 NA
ATOM      4  C3   11 d         -13.125 206.985 117.335  0.00  0.00     0.724 A 
ATOM      5  N2   11 d         -13.297 206.024 118.296  0.00  0.00    -0.043 NA
ATOM      6  C4   11 d         -14.047 204.936 117.992  0.00  0.00     0.181 A 
ATOM      7  N3   11 d         -14.362 203.876 118.751  0.00  0.00    -0.333 N 
ATOM      8  C5   11 d         -15.142 203.059 117.997  0.00  0.00     0.209 A 
ATOM      9  N4   11 d         -15.319 203.602 116.764  0.00  0.00    -0.236 NA
ATOM     10  N5   11 d         -12.386 208.104 117.612  0.00  0.00    -0.231 N 
ATOM     11  H1   11 d         -14.053 203.720 119.743  0.00  0.00     0.168 HD
ATOM     12  H3   11 d         -12.262 208.806 116.917  0.00  0.00     0.174 HD
ATOM     13  H4   11 d         -11.966 208.227 118.505  0.00  0.00     0.174 HD
ENDROOT
BRANCH   2  14
ATOM     14  O1   11 d         -15.086 205.573 114.511  0.00  0.00    -0.332 OA
BRANCH  14  15
ATOM     15  C6   11 d         -14.172 205.738 113.390  0.00  0.00     0.182 C 
BRANCH  15  16
ATOM     16  C7   11 d         -14.773 205.082 112.132  0.00  0.00     0.010 C 
ATOM     17  C8   11 d         -13.936 205.351 110.861  0.00  0.00     0.007 C 
ATOM     18  C9   11 d         -14.097 206.784 110.333  0.00  0.00     0.000 C 
ATOM     19  C10  11 d         -15.573 207.128 110.094  0.00  0.00     0.000 C 
ATOM     20  C11  11 d         -16.423 206.896 111.349  0.00  0.00     0.000 C 
ATOM     21  C12  11 d         -16.252 205.469 111.895  0.00  0.00     0.007 C 
ENDBRANCH  15  16
ENDBRANCH  14  15
ENDBRANCH   2  14
TORSDOF 3
ENDMDL
MODEL 5
REMARK VINA RESULT:      -7.8      2.021      2.974
REMARK  3 active torsions:
REMARK  status: ('A' for Active; 'I' for Inactive)
REMARK    1  A    between atoms: C2_2  and  O1_11 
REMARK       I    between atoms: C3_4  and  N5_10 
REMARK    2  A    between atoms: O1_11  and  C6_12 
REMARK    3  A    between atoms: C6_12  and  C7_13 
ROOT
ATOM      1  C1   11 d         -11.887 207.542 115.749  0.00  0.00     0.158 A 
ATOM      2  C2   11 d         -12.985 206.707 115.528  0.00  0.00     0.216 A 
ATOM      3  N1   11 d         -13.835 206.489 116.584  0.00  0.00    -0.036 NA
ATOM      4  C3   11 d         -13.644 207.082 117.807  0.00  0.00     0.724 A 
ATOM      5  N2   11 d         -12.577 207.916 118.008  0.00  0.00    -0.043 NA
ATOM      6  C4   11 d         -11.722 208.129 116.978  0.00  0.00     0.181 A 
ATOM      7  N3   11 d         -10.617 208.888 116.927  0.00  0.00    -0.333 N 
ATOM      8  C5   11 d         -10.103 208.766 115.675  0.00  0.00     0.209 A 
ATOM      9  N4   11 d         -10.882 207.933 114.938  0.00  0.00    -0.236 NA
ATOM     10  N5   11 d         -14.520 206.832 118.830  0.00  0.00    -0.231 N 
ATOM     11  H1   11 d         -10.233 209.464 117.717  0.00  0.00     0.168 HD
ATOM     12  H3   11 d         -15.295 206.224 118.688  0.00  0.00     0.174 HD
ATOM     13  H4   11 d         -14.393 207.255 119.720  0.00  0.00     0.174 HD
ENDROOT
BRANCH   2  14
ATOM     14  O1   11 d         -13.138 206.068 114.266  0.00  0.00    -0.332 OA
BRANCH  14  15
ATOM     15  C6   11 d         -14.426 206.345 113.646  0.00  0.00     0.182 C 
BRANCH  15  16
ATOM     16  C7   11 d         -14.620 205.425 112.427  0.00  0.00     0.010 C 
ATOM     17  C8   11 d         -13.610 205.715 111.294  0.00  0.00     0.007 C 
ATOM     18  C9   11 d         -13.934 207.003 110.520  0.00  0.00     0.000 C 
ATOM     19  C10  11 d         -15.368 206.980 109.977  0.00  0.00     0.000 C 
ATOM     20  C11  11 d         -16.396 206.721 111.086  0.00  0.00     0.000 C 
ATOM     21  C12  11 d         -16.066 205.444 111.877  0.00  0.00     0.007 C 
ENDBRANCH  15  16
ENDBRANCH  14  15
ENDBRANCH   2  14
TORSDOF 3
ENDMDL
MODEL 6
REMARK VINA RESULT:      -7.6      2.330      4.007
REMARK  3 active torsions:
REMARK  status: ('A' for Active; 'I' for Inactive)
REMARK    1  A    between atoms: C2_2  and  O1_11 
REMARK       I    between atoms: C3_4  and  N5_10 
REMARK    2  A    between atoms: O1_11  and  C6_12 
REMARK    3  A    between atoms: C6_12  and  C7_13 
ROOT
ATOM      1  C1   11 d         -12.999 205.970 116.383  0.00  0.00     0.158 A 
ATOM      2  C2   11 d         -12.431 206.404 115.183  0.00  0.00     0.216 A 
ATOM      3  N1   11 d         -11.597 207.494 115.238  0.00  0.00    -0.036 NA
ATOM      4  C3   11 d         -11.299 208.126 116.420  0.00  0.00     0.724 A 
ATOM      5  N2   11 d         -11.844 207.679 117.595  0.00  0.00    -0.043 NA
ATOM      6  C4   11 d         -12.681 206.613 117.553  0.00  0.00     0.181 A 
ATOM      7  N3   11 d         -13.334 206.000 118.551  0.00  0.00    -0.333 N 
ATOM      8  C5   11 d         -14.053 204.987 117.999  0.00  0.00     0.209 A 
ATOM      9  N4   11 d         -13.853 204.961 116.655  0.00  0.00    -0.236 NA
ATOM     10  N5   11 d         -10.462 209.209 116.423  0.00  0.00    -0.231 N 
ATOM     11  H1   11 d         -13.288 206.264 119.567  0.00  0.00     0.168 HD
ATOM     12  H3   11 d         -10.067 209.538 115.571  0.00  0.00     0.174 HD
ATOM     13  H4   11 d         -10.239 209.675 117.272  0.00  0.00     0.174 HD
ENDROOT
BRANCH   2  14
ATOM     14  O1   11 d         -12.787 205.764 113.965  0.00  0.00    -0.332 OA
BRANCH  14  15
ATOM     15  C6   11 d         -13.140 206.706 112.913  0.00  0.00     0.182 C 
BRANCH  15  16
ATOM     16  C7   11 d         -13.559 205.935 111.648  0.00  0.00     0.010 C 
ATOM     17  C8   11 d         -13.895 206.869 110.463  0.00  0.00     0.007 C 
ATOM     18  C9   11 d         -15.251 207.573 110.625  0.00  0.00     0.000 C 
ATOM     19  C10  11 d         -16.380 206.561 110.856  0.00  0.00     0.000 C 
ATOM     20  C11  11 d         -16.086 205.638 112.045  0.00  0.00     0.000 C 
ATOM     21  C12  11 d         -14.721 204.945 111.899  0.00  0.00     0.007 C 
ENDBRANCH  15  16
ENDBRANCH  14  15
ENDBRANCH   2  14
TORSDOF 3
ENDMDL
MODEL 7
REMARK VINA RESULT:      -7.2      1.528      2.389
REMARK  3 active torsions:
REMARK  status: ('A' for Active; 'I' for Inactive)
REMARK    1  A    between atoms: C2_2  and  O1_11 
REMARK       I    between atoms: C3_4  and  N5_10 
REMARK    2  A    between atoms: O1_11  and  C6_12 
REMARK    3  A    between atoms: C6_12  and  C7_13 
ROOT
ATOM      1  C1   11 d         -10.920 207.782 112.408  0.00  0.00     0.158 A 
ATOM      2  C2   11 d         -11.369 207.560 113.712  0.00  0.00     0.216 A 
ATOM      3  N1   11 d         -10.615 208.080 114.736  0.00  0.00    -0.036 NA
ATOM      4  C3   11 d          -9.480 208.815 114.504  0.00  0.00     0.724 A 
ATOM      5  N2   11 d          -9.060 209.047 113.221  0.00  0.00    -0.043 NA
ATOM      6  C4   11 d          -9.787 208.527 112.201  0.00  0.00     0.181 A 
ATOM      7  N3   11 d          -9.583 208.608 110.878  0.00  0.00    -0.333 N 
ATOM      8  C5   11 d         -10.583 207.916 110.274  0.00  0.00     0.209 A 
ATOM      9  N4   11 d         -11.417 207.399 111.213  0.00  0.00    -0.236 NA
ATOM     10  N5   11 d          -8.762 209.313 115.559  0.00  0.00    -0.231 N 
ATOM     11  H1   11 d          -8.792 209.118 110.410  0.00  0.00     0.168 HD
ATOM     12  H3   11 d          -9.063 209.144 116.492  0.00  0.00     0.174 HD
ATOM     13  H4   11 d          -7.938 209.846 115.404  0.00  0.00     0.174 HD
ENDROOT
BRANCH   2  14
ATOM     14  O1   11 d         -12.523 206.758 113.931  0.00  0.00    -0.332 OA
BRANCH  14  15
ATOM     15  C6   11 d         -13.764 207.463 113.640  0.00  0.00     0.182 C 
BRANCH  15  16
ATOM     16  C7   11 d         -14.883 206.443 113.358  0.00  0.00     0.010 C 
ATOM     17  C8   11 d         -14.367 205.175 112.640  0.00  0.00     0.007 C 
ATOM     18  C9   11 d         -14.052 205.416 111.156  0.00  0.00     0.000 C 
ATOM     19  C10  11 d         -15.261 206.004 110.418  0.00  0.00     0.000 C 
ATOM     20  C11  11 d         -15.777 207.280 111.093  0.00  0.00     0.000 C 
ATOM     21  C12  11 d         -16.076 207.051 112.584  0.00  0.00     0.007 C 
ENDBRANCH  15  16
ENDBRANCH  14  15
ENDBRANCH   2  14
TORSDOF 3
ENDMDL
MODEL 8
REMARK VINA RESULT:      -7.1      2.362      4.056
REMARK  3 active torsions:
REMARK  status: ('A' for Active; 'I' for Inactive)
REMARK    1  A    between atoms: C2_2  and  O1_11 
REMARK       I    between atoms: C3_4  and  N5_10 
REMARK    2  A    between atoms: O1_11  and  C6_12 
REMARK    3  A    between atoms: C6_12  and  C7_13 
ROOT
ATOM      1  C1   11 d         -12.916 206.818 116.664  0.00  0.00     0.158 A 
ATOM      2  C2   11 d         -12.798 207.813 115.692  0.00  0.00     0.216 A 
ATOM      3  N1   11 d         -11.566 208.401 115.537  0.00  0.00    -0.036 NA
ATOM      4  C3   11 d         -10.477 208.018 116.280  0.00  0.00     0.724 A 
ATOM      5  N2   11 d         -10.598 207.025 117.217  0.00  0.00    -0.043 NA
ATOM      6  C4   11 d         -11.812 206.447 117.390  0.00  0.00     0.181 A 
ATOM      7  N3   11 d         -12.182 205.473 118.234  0.00  0.00    -0.333 N 
ATOM      8  C5   11 d         -13.506 205.247 118.032  0.00  0.00     0.209 A 
ATOM      9  N4   11 d         -13.971 206.077 117.062  0.00  0.00    -0.236 NA
ATOM     10  N5   11 d          -9.270 208.634 116.088  0.00  0.00    -0.231 N 
ATOM     11  H1   11 d         -11.553 204.984 118.918  0.00  0.00     0.168 HD
ATOM     12  H3   11 d          -9.179 209.357 115.411  0.00  0.00     0.174 HD
ATOM     13  H4   11 d          -8.474 208.366 116.621  0.00  0.00     0.174 HD
ENDROOT
BRANCH   2  14
ATOM     14  O1   11 d         -13.948 208.225 114.964  0.00  0.00    -0.332 OA
BRANCH  14  15
ATOM     15  C6   11 d         -13.785 208.086 113.524  0.00  0.00     0.182 C 
BRANCH  15  16
ATOM     16  C7   11 d         -14.049 206.625 113.114  0.00  0.00     0.010 C 
ATOM     17  C8   11 d         -13.394 206.257 111.763  0.00  0.00     0.007 C 
ATOM     18  C9   11 d         -14.136 206.852 110.557  0.00  0.00     0.000 C 
ATOM     19  C10  11 d         -15.618 206.459 110.566  0.00  0.00     0.000 C 
ATOM     20  C11  11 d         -16.302 206.838 111.886  0.00  0.00     0.000 C 
ATOM     21  C12  11 d         -15.553 206.262 113.098  0.00  0.00     0.007 C 
ENDBRANCH  15  16
ENDBRANCH  14  15
ENDBRANCH   2  14
TORSDOF 3
ENDMDL
MODEL 9
REMARK VINA RESULT:      -6.5      2.174      3.325
REMARK  3 active torsions:
REMARK  status: ('A' for Active; 'I' for Inactive)
REMARK    1  A    between atoms: C2_2  and  O1_11 
REMARK       I    between atoms: C3_4  and  N5_10 
REMARK    2  A    between atoms: O1_11  and  C6_12 
REMARK    3  A    between atoms: C6_12  and  C7_13 
ROOT
ATOM      1  C1   11 d          -7.511 208.610 113.069  0.00  0.00     0.158 A 
ATOM      2  C2   11 d          -8.636 208.826 113.867  0.00  0.00     0.216 A 
ATOM      3  N1   11 d          -8.433 208.980 115.216  0.00  0.00    -0.036 NA
ATOM      4  C3   11 d          -7.179 208.955 115.772  0.00  0.00     0.724 A 
ATOM      5  N2   11 d          -6.078 208.765 114.978  0.00  0.00    -0.043 NA
ATOM      6  C4   11 d          -6.266 208.596 113.646  0.00  0.00     0.181 A 
ATOM      7  N3   11 d          -5.364 208.392 112.676  0.00  0.00    -0.333 N 
ATOM      8  C5   11 d          -6.048 208.277 111.508  0.00  0.00     0.209 A 
ATOM      9  N4   11 d          -7.380 208.410 111.741  0.00  0.00    -0.236 NA
ATOM     10  N5   11 d          -7.028 209.114 117.124  0.00  0.00    -0.231 N 
ATOM     11  H1   11 d          -4.323 208.334 112.809  0.00  0.00     0.168 HD
ATOM     12  H3   11 d          -7.825 209.250 117.703  0.00  0.00     0.174 HD
ATOM     13  H4   11 d          -6.124 209.097 117.538  0.00  0.00     0.174 HD
ENDROOT
BRANCH   2  14
ATOM     14  O1   11 d          -9.930 208.804 113.277  0.00  0.00    -0.332 OA
BRANCH  14  15
ATOM     15  C6   11 d         -10.919 208.134 114.109  0.00  0.00     0.182 C 
BRANCH  15  16
ATOM     16  C7   11 d         -11.100 206.682 113.628  0.00  0.00     0.010 C 
ATOM     17  C8   11 d         -11.727 206.595 112.218  0.00  0.00     0.007 C 
ATOM     18  C9   11 d         -13.231 206.907 112.213  0.00  0.00     0.000 C 
ATOM     19  C10  11 d         -13.989 206.012 113.200  0.00  0.00     0.000 C 
ATOM     20  C11  11 d         -13.406 206.100 114.616  0.00  0.00     0.000 C 
ATOM     21  C12  11 d         -11.896 205.808 114.626  0.00  0.00     0.007 C 
ENDBRANCH  15  16
ENDBRANCH  14  15
ENDBRANCH   2  14
TORSDOF 3
ENDMDL
MODEL 10
REMARK VINA RESULT:      -6.4      2.943      4.635
REMARK  3 active torsions:
REMARK  status: ('A' for Active; 'I' for Inactive)
REMARK    1  A    between atoms: C2_2  and  O1_11 
REMARK       I    between atoms: C3_4  and  N5_10 
REMARK    2  A    between atoms: O1_11  and  C6_12 
REMARK    3  A    between atoms: C6_12  and  C7_13 
ROOT
ATOM      1  C1   11 d         -10.628 208.037 112.776  0.00  0.00     0.158 A 
ATOM      2  C2   11 d         -10.723 208.078 114.169  0.00  0.00     0.216 A 
ATOM      3  N1   11 d          -9.723 208.727 114.851  0.00  0.00    -0.036 NA
ATOM      4  C3   11 d          -8.681 209.342 114.205  0.00  0.00     0.724 A 
ATOM      5  N2   11 d          -8.608 209.316 112.837  0.00  0.00    -0.043 NA
ATOM      6  C4   11 d          -9.580 208.665 112.152  0.00  0.00     0.181 A 
ATOM      7  N3   11 d          -9.727 208.497 110.830  0.00  0.00    -0.333 N 
ATOM      8  C5   11 d         -10.857 207.767 110.641  0.00  0.00     0.209 A 
ATOM      9  N4   11 d         -11.422 207.476 111.841  0.00  0.00    -0.236 NA
ATOM     10  N5   11 d          -7.708 209.977 114.930  0.00  0.00    -0.231 N 
ATOM     11  H1   11 d          -9.081 208.868 110.089  0.00  0.00     0.168 HD
ATOM     12  H3   11 d          -7.757 209.996 115.923  0.00  0.00     0.174 HD
ATOM     13  H4   11 d          -6.947 210.426 114.473  0.00  0.00     0.174 HD
ENDROOT
BRANCH   2  14
ATOM     14  O1   11 d         -11.788 207.396 114.820  0.00  0.00    -0.332 OA
BRANCH  14  15
ATOM     15  C6   11 d         -11.818 207.637 116.256  0.00  0.00     0.182 C 
BRANCH  15  16
ATOM     16  C7   11 d         -13.278 207.650 116.747  0.00  0.00     0.010 C 
ATOM     17  C8   11 d         -13.393 207.498 118.281  0.00  0.00     0.007 C 
ATOM     18  C9   11 d         -13.121 206.064 118.761  0.00  0.00     0.000 C 
ATOM     19  C10  11 d         -14.029 205.056 118.046  0.00  0.00     0.000 C 
ATOM     20  C11  11 d         -13.915 205.165 116.520  0.00  0.00     0.000 C 
ATOM     21  C12  11 d         -14.166 206.602 116.034  0.00  0.00     0.007 C 
ENDBRANCH  15  16
ENDBRANCH  14  15
ENDBRANCH   2  14
TORSDOF 3
ENDMDL
