MODEL 1
REMARK VINA RESULT:      -8.7      0.000      0.000
REMARK  4 active torsions:
REMARK  status: ('A' for Active; 'I' for Inactive)
REMARK    1  A    between atoms: C1_1  and  O2_3 
REMARK    2  A    between atoms: O2_3  and  C2_4 
REMARK    3  A    between atoms: C5_7  and  O3_14 
REMARK    4  A    between atoms: O3_14  and  C12_15 
ROOT
ATOM      1  C2   11 d         -12.275 206.849 112.199  0.00  0.00     0.101 A 
ATOM      2  C3   11 d         -13.659 206.587 112.312  0.00  0.00     0.012 A 
ATOM      3  C4   11 d         -14.353 206.921 113.507  0.00  0.00     0.012 A 
ATOM      4  C5   11 d         -13.661 207.515 114.589  0.00  0.00     0.101 A 
ATOM      5  C6   11 d         -12.305 207.899 114.425  0.00  0.00     0.012 A 
ATOM      6  C7   11 d         -11.606 207.556 113.232  0.00  0.00     0.012 A 
ATOM      7  C8   11 d         -10.263 207.973 113.076  0.00  0.00     0.015 A 
ATOM      8  C9   11 d          -9.619 208.708 114.078  0.00  0.00     0.001 A 
ATOM      9  C10  11 d         -10.311 209.064 115.238  0.00  0.00     0.001 A 
ATOM     10  C11  11 d         -11.644 208.675 115.405  0.00  0.00     0.015 A 
ATOM     11  C14  11 d         -15.730 206.618 113.612  0.00  0.00     0.015 A 
ATOM     12  C15  11 d         -16.410 206.006 112.552  0.00  0.00     0.001 A 
ATOM     13  C16  11 d         -15.729 205.680 111.376  0.00  0.00     0.001 A 
ATOM     14  C17  11 d         -14.362 205.965 111.255  0.00  0.00     0.015 A 
ENDROOT
BRANCH   1  15
ATOM     15  O2   11 d         -11.591 206.421 111.016  0.00  0.00    -0.277 OA
BRANCH  15  16
ATOM     16  C1   11 d         -11.414 207.453 110.039  0.00  0.00     0.260 C 
ATOM     17  O1   11 d         -10.355 208.131 109.968  0.00  0.00    -0.265 OA
ATOM     18  C18  11 d         -12.565 207.803 109.157  0.00  0.00     0.126 C 
ENDBRANCH  15  16
ENDBRANCH   1  15
BRANCH   4  19
ATOM     19  O3   11 d         -14.369 207.718 115.815  0.00  0.00    -0.277 OA
BRANCH  19  20
ATOM     20  C12  11 d         -13.951 206.765 116.789  0.00  0.00     0.260 C 
ATOM     21  O4   11 d         -14.034 205.537 116.532  0.00  0.00    -0.265 OA
ATOM     22  C13  11 d         -13.575 207.198 118.169  0.00  0.00     0.126 C 
ENDBRANCH  19  20
ENDBRANCH   4  19
TORSDOF 4
ENDMDL
MODEL 2
REMARK VINA RESULT:      -8.6      2.057      4.849
REMARK  4 active torsions:
REMARK  status: ('A' for Active; 'I' for Inactive)
REMARK    1  A    between atoms: C1_1  and  O2_3 
REMARK    2  A    between atoms: O2_3  and  C2_4 
REMARK    3  A    between atoms: C5_7  and  O3_14 
REMARK    4  A    between atoms: O3_14  and  C12_15 
ROOT
ATOM      1  C2   11 d         -11.398 206.973 113.706  0.00  0.00     0.101 A 
ATOM      2  C3   11 d         -11.433 207.241 112.319  0.00  0.00     0.012 A 
ATOM      3  C4   11 d         -12.541 206.814 111.537  0.00  0.00     0.012 A 
ATOM      4  C5   11 d         -13.614 206.119 112.144  0.00  0.00     0.101 A 
ATOM      5  C6   11 d         -13.641 205.970 113.555  0.00  0.00     0.012 A 
ATOM      6  C7   11 d         -12.527 206.387 114.337  0.00  0.00     0.012 A 
ATOM      7  C8   11 d         -12.585 206.256 115.745  0.00  0.00     0.015 A 
ATOM      8  C9   11 d         -13.717 205.719 116.369  0.00  0.00     0.001 A 
ATOM      9  C10  11 d         -14.819 205.329 115.603  0.00  0.00     0.001 A 
ATOM     10  C11  11 d         -14.787 205.465 114.211  0.00  0.00     0.015 A 
ATOM     11  C14  11 d         -12.538 207.061 110.145  0.00  0.00     0.015 A 
ATOM     12  C15  11 d         -11.465 207.725 109.539  0.00  0.00     0.001 A 
ATOM     13  C16  11 d         -10.377 208.148 110.308  0.00  0.00     0.001 A 
ATOM     14  C17  11 d         -10.357 207.905 111.687  0.00  0.00     0.015 A 
ENDROOT
BRANCH   1  15
ATOM     15  O2   11 d         -10.229 207.340 114.445  0.00  0.00    -0.277 OA
BRANCH  15  16
ATOM     16  C1   11 d         -10.191 208.719 114.829  0.00  0.00     0.260 C 
ATOM     17  O1   11 d         -11.164 209.281 115.399  0.00  0.00    -0.265 OA
ATOM     18  C18  11 d          -9.004 209.534 114.440  0.00  0.00     0.126 C 
ENDBRANCH  15  16
ENDBRANCH   1  15
BRANCH   4  19
ATOM     19  O3   11 d         -14.646 205.598 111.301  0.00  0.00    -0.277 OA
BRANCH  19  20
ATOM     20  C12  11 d         -15.759 206.489 111.278  0.00  0.00     0.260 C 
ATOM     21  O4   11 d         -15.586 207.691 110.953  0.00  0.00    -0.265 OA
ATOM     22  C13  11 d         -17.093 206.057 111.794  0.00  0.00     0.126 C 
ENDBRANCH  19  20
ENDBRANCH   4  19
TORSDOF 4
ENDMDL
MODEL 3
REMARK VINA RESULT:      -8.6      2.036      3.537
REMARK  4 active torsions:
REMARK  status: ('A' for Active; 'I' for Inactive)
REMARK    1  A    between atoms: C1_1  and  O2_3 
REMARK    2  A    between atoms: O2_3  and  C2_4 
REMARK    3  A    between atoms: C5_7  and  O3_14 
REMARK    4  A    between atoms: O3_14  and  C12_15 
ROOT
ATOM      1  C2   11 d         -13.264 206.206 112.385  0.00  0.00     0.101 A 
ATOM      2  C3   11 d         -13.555 206.025 113.756  0.00  0.00     0.012 A 
ATOM      3  C4   11 d         -12.609 206.417 114.743  0.00  0.00     0.012 A 
ATOM      4  C5   11 d         -11.374 206.988 114.358  0.00  0.00     0.101 A 
ATOM      5  C6   11 d         -11.140 207.292 112.992  0.00  0.00     0.012 A 
ATOM      6  C7   11 d         -12.081 206.890 112.001  0.00  0.00     0.012 A 
ATOM      7  C8   11 d         -11.844 207.228 110.648  0.00  0.00     0.015 A 
ATOM      8  C9   11 d         -10.699 207.943 110.277  0.00  0.00     0.001 A 
ATOM      9  C10  11 d          -9.786 208.355 111.251  0.00  0.00     0.001 A 
ATOM     10  C11  11 d         -10.010 208.045 112.597  0.00  0.00     0.015 A 
ATOM     11  C14  11 d         -12.906 206.194 116.108  0.00  0.00     0.015 A 
ATOM     12  C15  11 d         -14.117 205.604 116.490  0.00  0.00     0.001 A 
ATOM     13  C16  11 d         -15.048 205.221 115.519  0.00  0.00     0.001 A 
ATOM     14  C17  11 d         -14.769 205.426 114.162  0.00  0.00     0.015 A 
ENDROOT
BRANCH   1  15
ATOM     15  O2   11 d         -14.200 205.721 111.417  0.00  0.00    -0.277 OA
BRANCH  15  16
ATOM     16  C1   11 d         -15.313 206.595 111.193  0.00  0.00     0.260 C 
ATOM     17  O1   11 d         -15.159 207.799 110.858  0.00  0.00    -0.265 OA
ATOM     18  C18  11 d         -16.686 206.085 111.475  0.00  0.00     0.126 C 
ENDBRANCH  15  16
ENDBRANCH   1  15
BRANCH   4  19
ATOM     19  O3   11 d         -10.403 207.251 115.375  0.00  0.00    -0.277 OA
BRANCH  19  20
ATOM     20  C12  11 d         -10.749 208.432 116.094  0.00  0.00     0.260 C 
ATOM     21  O4   11 d         -11.006 209.489 115.464  0.00  0.00    -0.265 OA
ATOM     22  C13  11 d         -10.646 208.477 117.584  0.00  0.00     0.126 C 
ENDBRANCH  19  20
ENDBRANCH   4  19
TORSDOF 4
ENDMDL
MODEL 4
REMARK VINA RESULT:      -8.5      2.309      5.031
REMARK  4 active torsions:
REMARK  status: ('A' for Active; 'I' for Inactive)
REMARK    1  A    between atoms: C1_1  and  O2_3 
REMARK    2  A    between atoms: O2_3  and  C2_4 
REMARK    3  A    between atoms: C5_7  and  O3_14 
REMARK    4  A    between atoms: O3_14  and  C12_15 
ROOT
ATOM      1  C2   11 d         -11.902 206.765 113.909  0.00  0.00     0.101 A 
ATOM      2  C3   11 d         -11.396 207.228 112.674  0.00  0.00     0.012 A 
ATOM      3  C4   11 d         -10.426 208.268 112.645  0.00  0.00     0.012 A 
ATOM      4  C5   11 d          -9.964 208.843 113.852  0.00  0.00     0.101 A 
ATOM      5  C6   11 d         -10.371 208.287 115.092  0.00  0.00     0.012 A 
ATOM      6  C7   11 d         -11.350 207.253 115.123  0.00  0.00     0.012 A 
ATOM      7  C8   11 d         -11.722 206.692 116.367  0.00  0.00     0.015 A 
ATOM      8  C9   11 d         -11.144 207.145 117.559  0.00  0.00     0.001 A 
ATOM      9  C10  11 d         -10.167 208.144 117.528  0.00  0.00     0.001 A 
ATOM     10  C11  11 d          -9.775 208.701 116.306  0.00  0.00     0.015 A 
ATOM     11  C14  11 d          -9.960 208.741 111.396  0.00  0.00     0.015 A 
ATOM     12  C15  11 d         -10.436 208.190 110.200  0.00  0.00     0.001 A 
ATOM     13  C16  11 d         -11.387 207.166 110.229  0.00  0.00     0.001 A 
ATOM     14  C17  11 d         -11.868 206.690 111.455  0.00  0.00     0.015 A 
ENDROOT
BRANCH   1  15
ATOM     15  O2   11 d         -12.940 205.779 113.898  0.00  0.00    -0.277 OA
BRANCH  15  16
ATOM     16  C1   11 d         -14.248 206.308 114.145  0.00  0.00     0.260 C 
ATOM     17  O1   11 d         -14.639 207.391 113.634  0.00  0.00    -0.265 OA
ATOM     18  C18  11 d         -15.126 205.604 115.125  0.00  0.00     0.126 C 
ENDBRANCH  15  16
ENDBRANCH   1  15
BRANCH   4  19
ATOM     19  O3   11 d          -9.085 209.969 113.772  0.00  0.00    -0.277 OA
BRANCH  19  20
ATOM     20  C12  11 d          -7.757 209.582 114.116  0.00  0.00     0.260 C 
ATOM     21  O4   11 d          -7.093 210.286 114.919  0.00  0.00    -0.265 OA
ATOM     22  C13  11 d          -7.084 208.450 113.410  0.00  0.00     0.126 C 
ENDBRANCH  19  20
ENDBRANCH   4  19
TORSDOF 4
ENDMDL
MODEL 5
REMARK VINA RESULT:      -8.5      0.103      6.258
REMARK  4 active torsions:
REMARK  status: ('A' for Active; 'I' for Inactive)
REMARK    1  A    between atoms: C1_1  and  O2_3 
REMARK    2  A    between atoms: O2_3  and  C2_4 
REMARK    3  A    between atoms: C5_7  and  O3_14 
REMARK    4  A    between atoms: O3_14  and  C12_15 
ROOT
ATOM      1  C2   11 d         -13.605 207.513 114.551  0.00  0.00     0.101 A 
ATOM      2  C3   11 d         -12.268 207.919 114.335  0.00  0.00     0.012 A 
ATOM      3  C4   11 d         -11.604 207.572 113.127  0.00  0.00     0.012 A 
ATOM      4  C5   11 d         -12.277 206.819 112.136  0.00  0.00     0.101 A 
ATOM      5  C6   11 d         -13.657 206.530 112.295  0.00  0.00     0.012 A 
ATOM      6  C7   11 d         -14.320 206.867 113.509  0.00  0.00     0.012 A 
ATOM      7  C8   11 d         -15.703 206.596 113.638  0.00  0.00     0.015 A 
ATOM      8  C9   11 d         -16.417 205.998 112.592  0.00  0.00     0.001 A 
ATOM      9  C10  11 d         -15.771 205.687 111.393  0.00  0.00     0.001 A 
ATOM     10  C11  11 d         -14.408 205.961 111.240  0.00  0.00     0.015 A 
ATOM     11  C14  11 d         -10.255 207.957 112.947  0.00  0.00     0.015 A 
ATOM     12  C15  11 d          -9.579 208.679 113.938  0.00  0.00     0.001 A 
ATOM     13  C16  11 d         -10.234 209.023 115.125  0.00  0.00     0.001 A 
ATOM     14  C17  11 d         -11.567 208.643 115.326  0.00  0.00     0.015 A 
ENDROOT
BRANCH   1  15
ATOM     15  O2   11 d         -14.213 207.804 115.813  0.00  0.00    -0.277 OA
BRANCH  15  16
ATOM     16  C1   11 d         -13.943 206.831 116.829  0.00  0.00     0.260 C 
ATOM     17  O1   11 d         -14.112 205.598 116.635  0.00  0.00    -0.265 OA
ATOM     18  C18  11 d         -13.554 207.310 118.187  0.00  0.00     0.126 C 
ENDBRANCH  15  16
ENDBRANCH   1  15
BRANCH   4  19
ATOM     19  O3   11 d         -11.533 206.386 110.993  0.00  0.00    -0.277 OA
BRANCH  19  20
ATOM     20  C12  11 d         -11.482 207.422 110.016  0.00  0.00     0.260 C 
ATOM     21  O4   11 d         -10.451 208.136 109.921  0.00  0.00    -0.265 OA
ATOM     22  C13  11 d         -12.694 207.781 109.219  0.00  0.00     0.126 C 
ENDBRANCH  19  20
ENDBRANCH   4  19
TORSDOF 4
ENDMDL
MODEL 6
REMARK VINA RESULT:      -8.3      0.735      3.985
REMARK  4 active torsions:
REMARK  status: ('A' for Active; 'I' for Inactive)
REMARK    1  A    between atoms: C1_1  and  O2_3 
REMARK    2  A    between atoms: O2_3  and  C2_4 
REMARK    3  A    between atoms: C5_7  and  O3_14 
REMARK    4  A    between atoms: O3_14  and  C12_15 
ROOT
ATOM      1  C2   11 d         -12.255 206.871 112.025  0.00  0.00     0.101 A 
ATOM      2  C3   11 d         -11.528 207.501 113.060  0.00  0.00     0.012 A 
ATOM      3  C4   11 d         -12.192 207.915 114.248  0.00  0.00     0.012 A 
ATOM      4  C5   11 d         -13.581 207.698 114.398  0.00  0.00     0.101 A 
ATOM      5  C6   11 d         -14.282 206.947 113.419  0.00  0.00     0.012 A 
ATOM      6  C7   11 d         -13.621 206.541 112.224  0.00  0.00     0.012 A 
ATOM      7  C8   11 d         -14.328 205.768 111.274  0.00  0.00     0.015 A 
ATOM      8  C9   11 d         -15.663 205.407 111.494  0.00  0.00     0.001 A 
ATOM      9  C10  11 d         -16.305 205.786 112.675  0.00  0.00     0.001 A 
ATOM     10  C11  11 d         -15.618 206.537 113.635  0.00  0.00     0.015 A 
ATOM     11  C14  11 d         -11.452 208.576 115.255  0.00  0.00     0.015 A 
ATOM     12  C15  11 d         -10.082 208.815 115.096  0.00  0.00     0.001 A 
ATOM     13  C16  11 d          -9.429 208.406 113.930  0.00  0.00     0.001 A 
ATOM     14  C17  11 d         -10.145 207.757 112.916  0.00  0.00     0.015 A 
ENDROOT
BRANCH   1  15
ATOM     15  O2   11 d         -11.573 206.547 110.809  0.00  0.00    -0.277 OA
BRANCH  15  16
ATOM     16  C1   11 d         -11.543 207.615 109.855  0.00  0.00     0.260 C 
ATOM     17  O1   11 d         -10.535 208.358 109.716  0.00  0.00    -0.265 OA
ATOM     18  C18  11 d         -12.785 207.917 109.085  0.00  0.00     0.126 C 
ENDBRANCH  15  16
ENDBRANCH   1  15
BRANCH   4  19
ATOM     19  O3   11 d         -14.230 208.241 115.551  0.00  0.00    -0.277 OA
BRANCH  19  20
ATOM     20  C12  11 d         -13.991 207.414 116.687  0.00  0.00     0.260 C 
ATOM     21  O4   11 d         -13.607 207.935 117.765  0.00  0.00    -0.265 OA
ATOM     22  C13  11 d         -14.027 205.925 116.568  0.00  0.00     0.126 C 
ENDBRANCH  19  20
ENDBRANCH   4  19
TORSDOF 4
ENDMDL
MODEL 7
REMARK VINA RESULT:      -8.3      2.018      4.673
REMARK  4 active torsions:
REMARK  status: ('A' for Active; 'I' for Inactive)
REMARK    1  A    between atoms: C1_1  and  O2_3 
REMARK    2  A    between atoms: O2_3  and  C2_4 
REMARK    3  A    between atoms: C5_7  and  O3_14 
REMARK    4  A    between atoms: O3_14  and  C12_15 
ROOT
ATOM      1  C2   11 d         -11.517 208.133 114.708  0.00  0.00     0.101 A 
ATOM      2  C3   11 d         -12.388 207.364 115.510  0.00  0.00     0.012 A 
ATOM      3  C4   11 d         -13.255 206.409 114.910  0.00  0.00     0.012 A 
ATOM      4  C5   11 d         -13.249 206.227 113.507  0.00  0.00     0.101 A 
ATOM      5  C6   11 d         -12.281 206.901 112.719  0.00  0.00     0.012 A 
ATOM      6  C7   11 d         -11.420 207.866 113.317  0.00  0.00     0.012 A 
ATOM      7  C8   11 d         -10.443 208.506 112.520  0.00  0.00     0.015 A 
ATOM      8  C9   11 d         -10.321 208.208 111.157  0.00  0.00     0.001 A 
ATOM      9  C10  11 d         -11.151 207.247 110.575  0.00  0.00     0.001 A 
ATOM     10  C11  11 d         -12.113 206.591 111.349  0.00  0.00     0.015 A 
ATOM     11  C14  11 d         -14.144 205.675 115.729  0.00  0.00     0.015 A 
ATOM     12  C15  11 d         -14.170 205.873 117.114  0.00  0.00     0.001 A 
ATOM     13  C16  11 d         -13.316 206.809 117.705  0.00  0.00     0.001 A 
ATOM     14  C17  11 d         -12.433 207.553 116.911  0.00  0.00     0.015 A 
ENDROOT
BRANCH   1  15
ATOM     15  O2   11 d         -10.722 209.145 115.336  0.00  0.00    -0.277 OA
BRANCH  15  16
ATOM     16  C1   11 d          -9.426 208.695 115.748  0.00  0.00     0.260 C 
ATOM     17  O1   11 d          -9.252 208.049 116.816  0.00  0.00    -0.265 OA
ATOM     18  C18  11 d          -8.240 209.102 114.940  0.00  0.00     0.126 C 
ENDBRANCH  15  16
ENDBRANCH   1  15
BRANCH   4  19
ATOM     19  O3   11 d         -14.223 205.349 112.934  0.00  0.00    -0.277 OA
BRANCH  19  20
ATOM     20  C12  11 d         -15.354 206.093 112.488  0.00  0.00     0.260 C 
ATOM     21  O4   11 d         -16.276 206.367 113.298  0.00  0.00    -0.265 OA
ATOM     22  C13  11 d         -15.539 206.405 111.039  0.00  0.00     0.126 C 
ENDBRANCH  19  20
ENDBRANCH   4  19
TORSDOF 4
ENDMDL
MODEL 8
REMARK VINA RESULT:      -8.2      2.010      4.463
REMARK  4 active torsions:
REMARK  status: ('A' for Active; 'I' for Inactive)
REMARK    1  A    between atoms: C1_1  and  O2_3 
REMARK    2  A    between atoms: O2_3  and  C2_4 
REMARK    3  A    between atoms: C5_7  and  O3_14 
REMARK    4  A    between atoms: O3_14  and  C12_15 
ROOT
ATOM      1  C2   11 d         -13.223 206.291 113.520  0.00  0.00     0.101 A 
ATOM      2  C3   11 d         -12.233 206.920 112.732  0.00  0.00     0.012 A 
ATOM      3  C4   11 d         -11.351 207.868 113.318  0.00  0.00     0.012 A 
ATOM      4  C5   11 d         -11.460 208.187 114.692  0.00  0.00     0.101 A 
ATOM      5  C6   11 d         -12.363 207.458 115.509  0.00  0.00     0.012 A 
ATOM      6  C7   11 d         -13.255 206.516 114.921  0.00  0.00     0.012 A 
ATOM      7  C8   11 d         -14.127 205.779 115.756  0.00  0.00     0.015 A 
ATOM      8  C9   11 d         -14.125 205.971 117.142  0.00  0.00     0.001 A 
ATOM      9  C10  11 d         -13.236 206.879 117.722  0.00  0.00     0.001 A 
ATOM     10  C11  11 d         -12.354 207.607 116.915  0.00  0.00     0.015 A 
ATOM     11  C14  11 d         -10.390 208.512 112.503  0.00  0.00     0.015 A 
ATOM     12  C15  11 d         -10.299 208.217 111.137  0.00  0.00     0.001 A 
ATOM     13  C16  11 d         -11.164 207.282 110.562  0.00  0.00     0.001 A 
ATOM     14  C17  11 d         -12.128 206.640 111.350  0.00  0.00     0.015 A 
ENDROOT
BRANCH   1  15
ATOM     15  O2   11 d         -14.150 205.408 112.879  0.00  0.00    -0.277 OA
BRANCH  15  16
ATOM     16  C1   11 d         -15.366 206.041 112.462  0.00  0.00     0.260 C 
ATOM     17  O1   11 d         -16.266 206.365 113.282  0.00  0.00    -0.265 OA
ATOM     18  C18  11 d         -15.611 206.218 111.002  0.00  0.00     0.126 C 
ENDBRANCH  15  16
ENDBRANCH   1  15
BRANCH   4  19
ATOM     19  O3   11 d         -10.637 209.236 115.211  0.00  0.00    -0.277 OA
BRANCH  19  20
ATOM     20  C12  11 d          -9.366 208.720 115.598  0.00  0.00     0.260 C 
ATOM     21  O4   11 d          -9.264 208.052 116.658  0.00  0.00    -0.265 OA
ATOM     22  C13  11 d          -8.129 209.102 114.853  0.00  0.00     0.126 C 
ENDBRANCH  19  20
ENDBRANCH   4  19
TORSDOF 4
ENDMDL
MODEL 9
REMARK VINA RESULT:      -8.2      0.455      4.899
REMARK  4 active torsions:
REMARK  status: ('A' for Active; 'I' for Inactive)
REMARK    1  A    between atoms: C1_1  and  O2_3 
REMARK    2  A    between atoms: O2_3  and  C2_4 
REMARK    3  A    between atoms: C5_7  and  O3_14 
REMARK    4  A    between atoms: O3_14  and  C12_15 
ROOT
ATOM      1  C2   11 d         -13.398 207.602 114.310  0.00  0.00     0.101 A 
ATOM      2  C3   11 d         -14.050 206.792 113.354  0.00  0.00     0.012 A 
ATOM      3  C4   11 d         -13.374 206.409 112.163  0.00  0.00     0.012 A 
ATOM      4  C5   11 d         -12.046 206.839 111.929  0.00  0.00     0.101 A 
ATOM      5  C6   11 d         -11.348 207.538 112.948  0.00  0.00     0.012 A 
ATOM      6  C7   11 d         -12.028 207.931 114.136  0.00  0.00     0.012 A 
ATOM      7  C8   11 d         -11.307 208.602 115.153  0.00  0.00     0.015 A 
ATOM      8  C9   11 d          -9.945 208.886 114.998  0.00  0.00     0.001 A 
ATOM      9  C10  11 d          -9.273 208.482 113.842  0.00  0.00     0.001 A 
ATOM     10  C11  11 d          -9.964 207.803 112.832  0.00  0.00     0.015 A 
ATOM     11  C14  11 d         -14.058 205.627 111.203  0.00  0.00     0.015 A 
ATOM     12  C15  11 d         -15.380 205.224 111.420  0.00  0.00     0.001 A 
ATOM     13  C16  11 d         -16.044 205.597 112.593  0.00  0.00     0.001 A 
ATOM     14  C17  11 d         -15.387 206.378 113.552  0.00  0.00     0.015 A 
ENDROOT
BRANCH   1  15
ATOM     15  O2   11 d         -14.137 208.040 115.455  0.00  0.00    -0.277 OA
BRANCH  15  16
ATOM     16  C1   11 d         -13.973 207.206 116.608  0.00  0.00     0.260 C 
ATOM     17  O1   11 d         -14.287 205.986 116.601  0.00  0.00    -0.265 OA
ATOM     18  C18  11 d         -13.519 207.835 117.882  0.00  0.00     0.126 C 
ENDBRANCH  15  16
ENDBRANCH   1  15
BRANCH   4  19
ATOM     19  O3   11 d         -11.449 206.537 110.665  0.00  0.00    -0.277 OA
BRANCH  19  20
ATOM     20  C12  11 d         -11.536 207.665 109.797  0.00  0.00     0.260 C 
ATOM     21  O4   11 d         -10.573 208.469 109.725  0.00  0.00    -0.265 OA
ATOM     22  C13  11 d         -12.816 207.996 109.101  0.00  0.00     0.126 C 
ENDBRANCH  19  20
ENDBRANCH   4  19
TORSDOF 4
ENDMDL
MODEL 10
REMARK VINA RESULT:      -8.0      1.869      2.732
REMARK  4 active torsions:
REMARK  status: ('A' for Active; 'I' for Inactive)
REMARK    1  A    between atoms: C1_1  and  O2_3 
REMARK    2  A    between atoms: O2_3  and  C2_4 
REMARK    3  A    between atoms: C5_7  and  O3_14 
REMARK    4  A    between atoms: O3_14  and  C12_15 
ROOT
ATOM      1  C2   11 d         -11.515 206.921 112.841  0.00  0.00     0.101 A 
ATOM      2  C3   11 d         -12.509 206.691 113.819  0.00  0.00     0.012 A 
ATOM      3  C4   11 d         -12.377 207.255 115.117  0.00  0.00     0.012 A 
ATOM      4  C5   11 d         -11.250 208.048 115.437  0.00  0.00     0.101 A 
ATOM      5  C6   11 d         -10.323 208.388 114.417  0.00  0.00     0.012 A 
ATOM      6  C7   11 d         -10.449 207.815 113.119  0.00  0.00     0.012 A 
ATOM      7  C8   11 d          -9.532 208.189 112.108  0.00  0.00     0.015 A 
ATOM      8  C9   11 d          -8.507 209.105 112.373  0.00  0.00     0.001 A 
ATOM      9  C10  11 d          -8.396 209.684 113.640  0.00  0.00     0.001 A 
ATOM     10  C11  11 d          -9.302 209.339 114.649  0.00  0.00     0.015 A 
ATOM     11  C14  11 d         -13.365 206.983 116.092  0.00  0.00     0.015 A 
ATOM     12  C15  11 d         -14.468 206.176 115.785  0.00  0.00     0.001 A 
ATOM     13  C16  11 d         -14.600 205.624 114.507  0.00  0.00     0.001 A 
ATOM     14  C17  11 d         -13.627 205.875 113.531  0.00  0.00     0.015 A 
ENDROOT
BRANCH   1  15
ATOM     15  O2   11 d         -11.638 206.267 111.574  0.00  0.00    -0.277 OA
BRANCH  15  16
ATOM     16  C1   11 d         -12.323 207.041 110.582  0.00  0.00     0.260 C 
ATOM     17  O1   11 d         -13.580 207.118 110.546  0.00  0.00    -0.265 OA
ATOM     18  C18  11 d         -11.521 207.681 109.499  0.00  0.00     0.126 C 
ENDBRANCH  15  16
ENDBRANCH   1  15
BRANCH   4  19
ATOM     19  O3   11 d         -11.093 208.490 116.788  0.00  0.00    -0.277 OA
BRANCH  19  20
ATOM     20  C12  11 d         -10.276 207.576 117.514  0.00  0.00     0.260 C 
ATOM     21  O4   11 d         -10.806 206.596 118.096  0.00  0.00    -0.265 OA
ATOM     22  C13  11 d          -8.825 207.859 117.734  0.00  0.00     0.126 C 
ENDBRANCH  19  20
ENDBRANCH   4  19
TORSDOF 4
ENDMDL
