MODEL 1
REMARK VINA RESULT:      -8.1      0.000      0.000
REMARK  4 active torsions:
REMARK  status: ('A' for Active; 'I' for Inactive)
REMARK    1  A    between atoms: C1_1  and  C2_2 
REMARK    2  A    between atoms: C5_5  and  O1_8 
REMARK    3  A    between atoms: N1_9  and  N2_10 
REMARK       I    between atoms: N2_10  and  C8_11 
REMARK    4  A    between atoms: C8_11  and  C9_12 
ROOT
ATOM      1  C1   11 d         -12.123 207.116 111.948  0.00  0.00     0.061 C 
ATOM      2  N1   11 d         -11.399 207.253 113.046  0.00  0.00    -0.176 NA
ATOM      3  C14  11 d         -11.519 207.215 110.557  0.00  0.00     0.073 C 
ENDROOT
BRANCH   2   4
ATOM      4  N2   11 d         -10.046 207.616 113.001  0.00  0.00    -0.243 N 
ATOM      5  C8   11 d          -9.480 208.567 113.908  0.00  0.00     0.271 C 
ATOM      6  O2   11 d         -10.231 209.118 114.791  0.00  0.00    -0.266 OA
ATOM      7  H6   11 d          -9.457 207.133 112.246  0.00  0.00     0.192 HD
BRANCH   5   8
ATOM      8  C9   11 d          -8.033 208.932 113.856  0.00  0.00     0.036 A 
ATOM      9  C10  11 d          -7.510 209.856 114.785  0.00  0.00     0.036 A 
ATOM     10  C11  11 d          -6.152 210.202 114.736  0.00  0.00     0.117 A 
ATOM     11  N3   11 d          -5.339 209.640 113.798  0.00  0.00    -0.273 NA
ATOM     12  C12  11 d          -5.806 208.737 112.892  0.00  0.00     0.117 A 
ATOM     13  C13  11 d          -7.157 208.365 112.904  0.00  0.00     0.036 A 
ENDBRANCH   5   8
ENDBRANCH   2   4
BRANCH   1  14
ATOM     14  C2   11 d         -13.563 206.711 112.125  0.00  0.00    -0.010 A 
ATOM     15  C3   11 d         -14.450 206.724 111.019  0.00  0.00     0.016 A 
ATOM     16  C4   11 d         -15.798 206.365 111.167  0.00  0.00     0.037 A 
ATOM     17  C5   11 d         -16.286 205.963 112.416  0.00  0.00     0.065 A 
ATOM     18  C6   11 d         -15.433 205.962 113.526  0.00  0.00     0.037 A 
ATOM     19  C7   11 d         -14.081 206.314 113.382  0.00  0.00     0.016 A 
BRANCH  17  20
ATOM     20  O1   11 d         -17.660 205.679 112.578  0.00  0.00    -0.361 OA
ATOM     21  H5   11 d         -17.969 205.305 111.664  0.00  0.00     0.217 HD
ENDBRANCH  17  20
ENDBRANCH   1  14
TORSDOF 4
ENDMDL
MODEL 2
REMARK VINA RESULT:      -7.8      2.372      8.285
REMARK  4 active torsions:
REMARK  status: ('A' for Active; 'I' for Inactive)
REMARK    1  A    between atoms: C1_1  and  C2_2 
REMARK    2  A    between atoms: C5_5  and  O1_8 
REMARK    3  A    between atoms: N1_9  and  N2_10 
REMARK       I    between atoms: N2_10  and  C8_11 
REMARK    4  A    between atoms: C8_11  and  C9_12 
ROOT
ATOM      1  C1   11 d         -10.237 208.446 114.040  0.00  0.00     0.061 C 
ATOM      2  N1   11 d         -10.941 208.000 113.013  0.00  0.00    -0.176 NA
ATOM      3  C14  11 d         -10.803 208.508 115.449  0.00  0.00     0.073 C 
ENDROOT
BRANCH   2   4
ATOM      4  N2   11 d         -12.297 207.666 113.133  0.00  0.00    -0.243 N 
ATOM      5  C8   11 d         -12.991 206.921 112.128  0.00  0.00     0.271 C 
ATOM      6  O2   11 d         -12.363 206.551 111.072  0.00  0.00    -0.266 OA
ATOM      7  H6   11 d         -12.782 207.997 114.030  0.00  0.00     0.192 HD
BRANCH   5   8
ATOM      8  C9   11 d         -14.433 206.560 112.279  0.00  0.00     0.036 A 
ATOM      9  C10  11 d         -14.944 206.231 113.552  0.00  0.00     0.036 A 
ATOM     10  C11  11 d         -16.296 205.890 113.695  0.00  0.00     0.117 A 
ATOM     11  N3   11 d         -17.117 205.886 112.607  0.00  0.00    -0.273 NA
ATOM     12  C12  11 d         -16.662 206.209 111.365  0.00  0.00     0.117 A 
ATOM     13  C13  11 d         -15.316 206.553 111.177  0.00  0.00     0.036 A 
ENDBRANCH   5   8
ENDBRANCH   2   4
BRANCH   1  14
ATOM     14  C2   11 d          -8.786 208.761 113.789  0.00  0.00    -0.010 A 
ATOM     15  C3   11 d          -8.042 209.508 114.737  0.00  0.00     0.016 A 
ATOM     16  C4   11 d          -6.694 209.824 114.514  0.00  0.00     0.037 A 
ATOM     17  C5   11 d          -6.051 209.384 113.351  0.00  0.00     0.065 A 
ATOM     18  C6   11 d          -6.771 208.662 112.391  0.00  0.00     0.037 A 
ATOM     19  C7   11 d          -8.119 208.337 112.613  0.00  0.00     0.016 A 
BRANCH  17  20
ATOM     20  O1   11 d          -4.718 209.772 113.092  0.00  0.00    -0.361 OA
ATOM     21  H5   11 d          -4.140 208.963 113.379  0.00  0.00     0.217 HD
ENDBRANCH  17  20
ENDBRANCH   1  14
TORSDOF 4
ENDMDL
MODEL 3
REMARK VINA RESULT:      -7.7      2.159      8.114
REMARK  4 active torsions:
REMARK  status: ('A' for Active; 'I' for Inactive)
REMARK    1  A    between atoms: C1_1  and  C2_2 
REMARK    2  A    between atoms: C5_5  and  O1_8 
REMARK    3  A    between atoms: N1_9  and  N2_10 
REMARK       I    between atoms: N2_10  and  C8_11 
REMARK    4  A    between atoms: C8_11  and  C9_12 
ROOT
ATOM      1  C1   11 d          -9.861 208.203 112.243  0.00  0.00     0.061 C 
ATOM      2  N1   11 d         -10.781 207.701 113.050  0.00  0.00    -0.176 NA
ATOM      3  C14  11 d         -10.103 208.400 110.755  0.00  0.00     0.073 C 
ENDROOT
BRANCH   2   4
ATOM      4  N2   11 d         -12.001 207.208 112.566  0.00  0.00    -0.243 N 
ATOM      5  C8   11 d         -13.257 207.590 113.133  0.00  0.00     0.271 C 
ATOM      6  O2   11 d         -13.278 208.405 114.125  0.00  0.00    -0.266 OA
ATOM      7  H6   11 d         -11.935 206.529 111.739  0.00  0.00     0.192 HD
BRANCH   5   8
ATOM      8  C9   11 d         -14.549 207.066 112.597  0.00  0.00     0.036 A 
ATOM      9  C10  11 d         -14.835 207.183 111.221  0.00  0.00     0.036 A 
ATOM     10  C11  11 d         -16.048 206.694 110.716  0.00  0.00     0.117 A 
ATOM     11  N3   11 d         -16.944 206.098 111.552  0.00  0.00    -0.273 NA
ATOM     12  C12  11 d         -16.697 205.957 112.884  0.00  0.00     0.117 A 
ATOM     13  C13  11 d         -15.498 206.435 113.431  0.00  0.00     0.036 A 
ENDBRANCH   5   8
ENDBRANCH   2   4
BRANCH   1  14
ATOM     14  C2   11 d          -8.596 208.712 112.881  0.00  0.00    -0.010 A 
ATOM     15  C3   11 d          -7.336 208.440 112.290  0.00  0.00     0.016 A 
ATOM     16  C4   11 d          -6.146 208.893 112.878  0.00  0.00     0.037 A 
ATOM     17  C5   11 d          -6.187 209.648 114.056  0.00  0.00     0.065 A 
ATOM     18  C6   11 d          -7.418 209.913 114.669  0.00  0.00     0.037 A 
ATOM     19  C7   11 d          -8.612 209.467 114.080  0.00  0.00     0.016 A 
BRANCH  17  20
ATOM     20  O1   11 d          -4.984 210.034 114.688  0.00  0.00    -0.361 OA
ATOM     21  H5   11 d          -4.243 209.486 114.217  0.00  0.00     0.217 HD
ENDBRANCH  17  20
ENDBRANCH   1  14
TORSDOF 4
ENDMDL
MODEL 4
REMARK VINA RESULT:      -7.7      1.323      1.507
REMARK  4 active torsions:
REMARK  status: ('A' for Active; 'I' for Inactive)
REMARK    1  A    between atoms: C1_1  and  C2_2 
REMARK    2  A    between atoms: C5_5  and  O1_8 
REMARK    3  A    between atoms: N1_9  and  N2_10 
REMARK       I    between atoms: N2_10  and  C8_11 
REMARK    4  A    between atoms: C8_11  and  C9_12 
ROOT
ATOM      1  C1   11 d         -12.415 206.822 113.599  0.00  0.00     0.061 C 
ATOM      2  N1   11 d         -11.835 207.960 113.254  0.00  0.00    -0.176 NA
ATOM      3  C14  11 d         -11.738 205.804 114.502  0.00  0.00     0.073 C 
ENDROOT
BRANCH   2   4
ATOM      4  N2   11 d         -10.509 208.250 113.602  0.00  0.00    -0.243 N 
ATOM      5  C8   11 d          -9.501 208.506 112.620  0.00  0.00     0.271 C 
ATOM      6  O2   11 d          -9.809 208.460 111.375  0.00  0.00    -0.266 OA
ATOM      7  H6   11 d         -10.297 208.276 114.653  0.00  0.00     0.192 HD
BRANCH   5   8
ATOM      8  C9   11 d          -8.095 208.828 113.008  0.00  0.00     0.036 A 
ATOM      9  C10  11 d          -7.847 209.615 114.153  0.00  0.00     0.036 A 
ATOM     10  C11  11 d          -6.528 209.920 114.517  0.00  0.00     0.117 A 
ATOM     11  N3   11 d          -5.489 209.451 113.772  0.00  0.00    -0.273 NA
ATOM     12  C12  11 d          -5.689 208.679 112.668  0.00  0.00     0.117 A 
ATOM     13  C13  11 d          -6.992 208.353 112.266  0.00  0.00     0.036 A 
ENDBRANCH   5   8
ENDBRANCH   2   4
BRANCH   1  14
ATOM     14  C2   11 d         -13.848 206.629 113.176  0.00  0.00    -0.010 A 
ATOM     15  C3   11 d         -14.263 206.989 111.869  0.00  0.00     0.016 A 
ATOM     16  C4   11 d         -15.596 206.831 111.463  0.00  0.00     0.037 A 
ATOM     17  C5   11 d         -16.540 206.290 112.342  0.00  0.00     0.065 A 
ATOM     18  C6   11 d         -16.158 205.945 113.645  0.00  0.00     0.037 A 
ATOM     19  C7   11 d         -14.823 206.095 114.054  0.00  0.00     0.016 A 
BRANCH  17  20
ATOM     20  O1   11 d         -17.897 206.206 111.957  0.00  0.00    -0.361 OA
ATOM     21  H5   11 d         -18.357 205.658 112.704  0.00  0.00     0.217 HD
ENDBRANCH  17  20
ENDBRANCH   1  14
TORSDOF 4
ENDMDL
MODEL 5
REMARK VINA RESULT:      -7.2      4.423      7.834
REMARK  4 active torsions:
REMARK  status: ('A' for Active; 'I' for Inactive)
REMARK    1  A    between atoms: C1_1  and  C2_2 
REMARK    2  A    between atoms: C5_5  and  O1_8 
REMARK    3  A    between atoms: N1_9  and  N2_10 
REMARK       I    between atoms: N2_10  and  C8_11 
REMARK    4  A    between atoms: C8_11  and  C9_12 
ROOT
ATOM      1  C1   11 d         -13.781 205.951 113.556  0.00  0.00     0.061 C 
ATOM      2  N1   11 d         -13.429 205.905 114.829  0.00  0.00    -0.176 NA
ATOM      3  C14  11 d         -15.158 205.524 113.075  0.00  0.00     0.073 C 
ENDROOT
BRANCH   2   4
ATOM      4  N2   11 d         -14.262 205.346 115.808  0.00  0.00    -0.243 N 
ATOM      5  C8   11 d         -13.741 204.666 116.955  0.00  0.00     0.271 C 
ATOM      6  O2   11 d         -12.471 204.551 117.095  0.00  0.00    -0.266 OA
ATOM      7  H6   11 d         -15.315 205.464 115.649  0.00  0.00     0.192 HD
BRANCH   5   8
ATOM      8  C9   11 d         -14.642 204.088 117.996  0.00  0.00     0.036 A 
ATOM      9  C10  11 d         -14.679 204.659 119.286  0.00  0.00     0.036 A 
ATOM     10  C11  11 d         -15.522 204.116 120.266  0.00  0.00     0.117 A 
ATOM     11  N3   11 d         -16.311 203.046 119.969  0.00  0.00    -0.273 NA
ATOM     12  C12  11 d         -16.311 202.475 118.733  0.00  0.00     0.117 A 
ATOM     13  C13  11 d         -15.480 202.984 117.725  0.00  0.00     0.036 A 
ENDBRANCH   5   8
ENDBRANCH   2   4
BRANCH   1  14
ATOM     14  C2   11 d         -12.807 206.587 112.599  0.00  0.00    -0.010 A 
ATOM     15  C3   11 d         -11.657 207.257 113.089  0.00  0.00     0.016 A 
ATOM     16  C4   11 d         -10.747 207.868 112.215  0.00  0.00     0.037 A 
ATOM     17  C5   11 d         -10.949 207.806 110.831  0.00  0.00     0.065 A 
ATOM     18  C6   11 d         -12.088 207.167 110.325  0.00  0.00     0.037 A 
ATOM     19  C7   11 d         -12.999 206.547 111.196  0.00  0.00     0.016 A 
BRANCH  17  20
ATOM     20  O1   11 d         -10.075 208.490 109.958  0.00  0.00    -0.361 OA
ATOM     21  H5   11 d          -9.332 208.874 110.567  0.00  0.00     0.217 HD
ENDBRANCH  17  20
ENDBRANCH   1  14
TORSDOF 4
ENDMDL
MODEL 6
REMARK VINA RESULT:      -6.7      4.238      5.492
REMARK  4 active torsions:
REMARK  status: ('A' for Active; 'I' for Inactive)
REMARK    1  A    between atoms: C1_1  and  C2_2 
REMARK    2  A    between atoms: C5_5  and  O1_8 
REMARK    3  A    between atoms: N1_9  and  N2_10 
REMARK       I    between atoms: N2_10  and  C8_11 
REMARK    4  A    between atoms: C8_11  and  C9_12 
ROOT
ATOM      1  C1   11 d         -13.881 205.099 116.389  0.00  0.00     0.061 C 
ATOM      2  N1   11 d         -12.571 205.212 116.523  0.00  0.00    -0.176 NA
ATOM      3  C14  11 d         -14.618 205.577 115.149  0.00  0.00     0.073 C 
ENDROOT
BRANCH   2   4
ATOM      4  N2   11 d         -11.786 205.890 115.579  0.00  0.00    -0.243 N 
ATOM      5  C8   11 d         -11.487 207.284 115.697  0.00  0.00     0.271 C 
ATOM      6  O2   11 d         -11.956 207.947 116.691  0.00  0.00    -0.266 OA
ATOM      7  H6   11 d         -11.418 205.298 114.765  0.00  0.00     0.192 HD
BRANCH   5   8
ATOM      8  C9   11 d         -10.637 207.989 114.691  0.00  0.00     0.036 A 
ATOM      9  C10  11 d         -10.778 207.686 113.320  0.00  0.00     0.036 A 
ATOM     10  C11  11 d          -9.980 208.345 112.374  0.00  0.00     0.117 A 
ATOM     11  N3   11 d          -9.077 209.282 112.778  0.00  0.00    -0.273 NA
ATOM     12  C12  11 d          -8.921 209.609 114.091  0.00  0.00     0.117 A 
ATOM     13  C13  11 d          -9.697 208.972 115.070  0.00  0.00     0.036 A 
ENDBRANCH   5   8
ENDBRANCH   2   4
BRANCH   1  14
ATOM     14  C2   11 d         -14.615 204.338 117.462  0.00  0.00    -0.010 A 
ATOM     15  C3   11 d         -14.513 204.737 118.819  0.00  0.00     0.016 A 
ATOM     16  C4   11 d         -15.176 204.032 119.834  0.00  0.00     0.037 A 
ATOM     17  C5   11 d         -15.974 202.926 119.517  0.00  0.00     0.065 A 
ATOM     18  C6   11 d         -16.073 202.501 118.186  0.00  0.00     0.037 A 
ATOM     19  C7   11 d         -15.417 203.208 117.166  0.00  0.00     0.016 A 
BRANCH  17  20
ATOM     20  O1   11 d         -16.575 202.170 120.548  0.00  0.00    -0.361 OA
ATOM     21  H5   11 d         -15.802 201.930 121.193  0.00  0.00     0.217 HD
ENDBRANCH  17  20
ENDBRANCH   1  14
TORSDOF 4
ENDMDL
MODEL 7
REMARK VINA RESULT:      -6.6      3.184      3.766
REMARK  4 active torsions:
REMARK  status: ('A' for Active; 'I' for Inactive)
REMARK    1  A    between atoms: C1_1  and  C2_2 
REMARK    2  A    between atoms: C5_5  and  O1_8 
REMARK    3  A    between atoms: N1_9  and  N2_10 
REMARK       I    between atoms: N2_10  and  C8_11 
REMARK    4  A    between atoms: C8_11  and  C9_12 
ROOT
ATOM      1  C1   11 d         -11.118 207.738 113.668  0.00  0.00     0.061 C 
ATOM      2  N1   11 d         -11.175 207.617 114.984  0.00  0.00    -0.176 NA
ATOM      3  C14  11 d          -9.827 208.066 112.936  0.00  0.00     0.073 C 
ENDROOT
BRANCH   2   4
ATOM      4  N2   11 d         -10.073 207.900 115.802  0.00  0.00    -0.243 N 
ATOM      5  C8   11 d         -10.146 207.834 117.230  0.00  0.00     0.271 C 
ATOM      6  O2   11 d         -11.256 207.516 117.789  0.00  0.00    -0.266 OA
ATOM      7  H6   11 d          -9.167 208.163 115.292  0.00  0.00     0.192 HD
BRANCH   5   8
ATOM      8  C9   11 d          -8.958 208.124 118.087  0.00  0.00     0.036 A 
ATOM      9  C10  11 d          -7.659 208.006 117.548  0.00  0.00     0.036 A 
ATOM     10  C11  11 d          -6.543 208.275 118.353  0.00  0.00     0.117 A 
ATOM     11  N3   11 d          -6.713 208.660 119.649  0.00  0.00    -0.273 NA
ATOM     12  C12  11 d          -7.951 208.797 120.200  0.00  0.00     0.117 A 
ATOM     13  C13  11 d          -9.094 208.534 119.432  0.00  0.00     0.036 A 
ENDBRANCH   5   8
ENDBRANCH   2   4
BRANCH   1  14
ATOM     14  C2   11 d         -12.364 207.395 112.895  0.00  0.00    -0.010 A 
ATOM     15  C3   11 d         -12.269 206.785 111.619  0.00  0.00     0.016 A 
ATOM     16  C4   11 d         -13.418 206.472 110.878  0.00  0.00     0.037 A 
ATOM     17  C5   11 d         -14.688 206.739 111.401  0.00  0.00     0.065 A 
ATOM     18  C6   11 d         -14.806 207.360 112.651  0.00  0.00     0.037 A 
ATOM     19  C7   11 d         -13.659 207.668 113.400  0.00  0.00     0.016 A 
BRANCH  17  20
ATOM     20  O1   11 d         -15.839 206.497 110.620  0.00  0.00    -0.361 OA
ATOM     21  H5   11 d         -16.552 206.156 111.287  0.00  0.00     0.217 HD
ENDBRANCH  17  20
ENDBRANCH   1  14
TORSDOF 4
ENDMDL
MODEL 8
REMARK VINA RESULT:      -6.6      2.353      8.151
REMARK  4 active torsions:
REMARK  status: ('A' for Active; 'I' for Inactive)
REMARK    1  A    between atoms: C1_1  and  C2_2 
REMARK    2  A    between atoms: C5_5  and  O1_8 
REMARK    3  A    between atoms: N1_9  and  N2_10 
REMARK       I    between atoms: N2_10  and  C8_11 
REMARK    4  A    between atoms: C8_11  and  C9_12 
ROOT
ATOM      1  C1   11 d          -8.855 208.700 113.819  0.00  0.00     0.061 C 
ATOM      2  N1   11 d         -10.074 208.490 114.288  0.00  0.00    -0.176 NA
ATOM      3  C14  11 d          -8.545 208.700 112.331  0.00  0.00     0.073 C 
ENDROOT
BRANCH   2   4
ATOM      4  N2   11 d         -11.140 208.137 113.450  0.00  0.00    -0.243 N 
ATOM      5  C8   11 d         -11.695 206.818 113.437  0.00  0.00     0.271 C 
ATOM      6  O2   11 d         -11.200 205.919 114.208  0.00  0.00    -0.266 OA
ATOM      7  H6   11 d         -11.519 208.919 112.822  0.00  0.00     0.192 HD
BRANCH   5   8
ATOM      8  C9   11 d         -12.840 206.461 112.548  0.00  0.00     0.036 A 
ATOM      9  C10  11 d         -12.828 206.862 111.195  0.00  0.00     0.036 A 
ATOM     10  C11  11 d         -13.904 206.529 110.359  0.00  0.00     0.117 A 
ATOM     11  N3   11 d         -14.954 205.813 110.851  0.00  0.00    -0.273 NA
ATOM     12  C12  11 d         -14.995 205.400 112.148  0.00  0.00     0.117 A 
ATOM     13  C13  11 d         -13.942 205.713 113.018  0.00  0.00     0.036 A 
ENDBRANCH   5   8
ENDBRANCH   2   4
BRANCH   1  14
ATOM     14  C2   11 d          -7.795 209.085 114.816  0.00  0.00    -0.010 A 
ATOM     15  C3   11 d          -6.847 210.091 114.499  0.00  0.00     0.016 A 
ATOM     16  C4   11 d          -5.842 210.452 115.409  0.00  0.00     0.037 A 
ATOM     17  C5   11 d          -5.775 209.837 116.664  0.00  0.00     0.065 A 
ATOM     18  C6   11 d          -6.688 208.827 116.992  0.00  0.00     0.037 A 
ATOM     19  C7   11 d          -7.700 208.466 116.087  0.00  0.00     0.016 A 
BRANCH  17  20
ATOM     20  O1   11 d          -4.715 210.146 117.546  0.00  0.00    -0.361 OA
ATOM     21  H5   11 d          -4.507 211.145 117.378  0.00  0.00     0.217 HD
ENDBRANCH  17  20
ENDBRANCH   1  14
TORSDOF 4
ENDMDL
MODEL 9
REMARK VINA RESULT:      -6.6      5.059      7.928
REMARK  4 active torsions:
REMARK  status: ('A' for Active; 'I' for Inactive)
REMARK    1  A    between atoms: C1_1  and  C2_2 
REMARK    2  A    between atoms: C5_5  and  O1_8 
REMARK    3  A    between atoms: N1_9  and  N2_10 
REMARK       I    between atoms: N2_10  and  C8_11 
REMARK    4  A    between atoms: C8_11  and  C9_12 
ROOT
ATOM      1  C1   11 d         -13.144 206.174 115.061  0.00  0.00     0.061 C 
ATOM      2  N1   11 d         -12.669 206.182 116.296  0.00  0.00    -0.176 NA
ATOM      3  C14  11 d         -14.563 205.736 114.737  0.00  0.00     0.073 C 
ENDROOT
BRANCH   2   4
ATOM      4  N2   11 d         -13.405 205.674 117.375  0.00  0.00    -0.243 N 
ATOM      5  C8   11 d         -13.680 206.451 118.544  0.00  0.00     0.271 C 
ATOM      6  O2   11 d         -13.233 207.652 118.621  0.00  0.00    -0.266 OA
ATOM      7  H6   11 d         -13.756 204.666 117.269  0.00  0.00     0.192 HD
BRANCH   5   8
ATOM      8  C9   11 d         -14.478 205.900 119.680  0.00  0.00     0.036 A 
ATOM      9  C10  11 d         -15.019 206.775 120.646  0.00  0.00     0.036 A 
ATOM     10  C11  11 d         -15.766 206.259 121.714  0.00  0.00     0.117 A 
ATOM     11  N3   11 d         -15.977 204.917 121.813  0.00  0.00    -0.273 NA
ATOM     12  C12  11 d         -15.481 204.043 120.894  0.00  0.00     0.117 A 
ATOM     13  C13  11 d         -14.725 204.516 119.812  0.00  0.00     0.036 A 
ENDBRANCH   5   8
ENDBRANCH   2   4
BRANCH   1  14
ATOM     14  C2   11 d         -12.265 206.757 113.987  0.00  0.00    -0.010 A 
ATOM     15  C3   11 d         -11.174 207.595 114.332  0.00  0.00     0.016 A 
ATOM     16  C4   11 d         -10.354 208.160 113.345  0.00  0.00     0.037 A 
ATOM     17  C5   11 d         -10.588 207.885 111.992  0.00  0.00     0.065 A 
ATOM     18  C6   11 d         -11.671 207.076 111.627  0.00  0.00     0.037 A 
ATOM     19  C7   11 d         -12.491 206.503 112.612  0.00  0.00     0.016 A 
BRANCH  17  20
ATOM     20  O1   11 d          -9.810 208.519 110.998  0.00  0.00    -0.361 OA
ATOM     21  H5   11 d          -9.340 209.303 111.482  0.00  0.00     0.217 HD
ENDBRANCH  17  20
ENDBRANCH   1  14
TORSDOF 4
ENDMDL
MODEL 10
REMARK VINA RESULT:      -6.5      4.330      5.922
REMARK  4 active torsions:
REMARK  status: ('A' for Active; 'I' for Inactive)
REMARK    1  A    between atoms: C1_1  and  C2_2 
REMARK    2  A    between atoms: C5_5  and  O1_8 
REMARK    3  A    between atoms: N1_9  and  N2_10 
REMARK       I    between atoms: N2_10  and  C8_11 
REMARK    4  A    between atoms: C8_11  and  C9_12 
ROOT
ATOM      1  C1   11 d         -13.813 205.392 116.277  0.00  0.00     0.061 C 
ATOM      2  N1   11 d         -12.526 205.458 115.980  0.00  0.00    -0.176 NA
ATOM      3  C14  11 d         -14.900 205.529 115.223  0.00  0.00     0.073 C 
ENDROOT
BRANCH   2   4
ATOM      4  N2   11 d         -12.079 205.779 114.691  0.00  0.00    -0.243 N 
ATOM      5  C8   11 d         -11.763 207.120 114.306  0.00  0.00     0.271 C 
ATOM      6  O2   11 d         -11.900 208.069 115.158  0.00  0.00    -0.266 OA
ATOM      7  H6   11 d         -11.981 204.955 114.012  0.00  0.00     0.192 HD
BRANCH   5   8
ATOM      8  C9   11 d         -11.273 207.443 112.932  0.00  0.00     0.036 A 
ATOM      9  C10  11 d         -11.982 206.971 111.807  0.00  0.00     0.036 A 
ATOM     10  C11  11 d         -11.522 207.272 110.517  0.00  0.00     0.117 A 
ATOM     11  N3   11 d         -10.400 208.026 110.351  0.00  0.00    -0.273 NA
ATOM     12  C12  11 d          -9.696 208.509 111.413  0.00  0.00     0.117 A 
ATOM     13  C13  11 d         -10.119 208.229 112.720  0.00  0.00     0.036 A 
ENDBRANCH   5   8
ENDBRANCH   2   4
BRANCH   1  14
ATOM     14  C2   11 d         -14.171 205.027 117.694  0.00  0.00    -0.010 A 
ATOM     15  C3   11 d         -14.921 203.854 117.962  0.00  0.00     0.016 A 
ATOM     16  C4   11 d         -15.277 203.506 119.274  0.00  0.00     0.037 A 
ATOM     17  C5   11 d         -14.873 204.306 120.349  0.00  0.00     0.065 A 
ATOM     18  C6   11 d         -14.148 205.480 120.106  0.00  0.00     0.037 A 
ATOM     19  C7   11 d         -13.784 205.829 118.795  0.00  0.00     0.016 A 
BRANCH  17  20
ATOM     20  O1   11 d         -15.300 203.996 121.659  0.00  0.00    -0.361 OA
ATOM     21  H5   11 d         -14.697 204.562 122.281  0.00  0.00     0.217 HD
ENDBRANCH  17  20
ENDBRANCH   1  14
TORSDOF 4
ENDMDL
