MODEL 1
REMARK VINA RESULT:      -7.2      0.000      0.000
REMARK  2 active torsions:
REMARK  status: ('A' for Active; 'I' for Inactive)
REMARK    1  A    between atoms: C2_2  and  O4_16 
REMARK    2  A    between atoms: C3_3  and  N1_4 
ROOT
ATOM      1  C1   11 d         -13.540 207.183 112.564  0.00  0.00     0.173 A 
ATOM      2  C2   11 d         -14.917 206.940 112.762  0.00  0.00     0.146 A 
ATOM      3  C3   11 d         -15.716 206.556 111.661  0.00  0.00     0.141 A 
ATOM      4  C4   11 d         -15.113 206.458 110.389  0.00  0.00     0.057 A 
ATOM      5  C5   11 d         -13.751 206.734 110.229  0.00  0.00     0.105 A 
ATOM      6  N2   11 d         -12.973 207.093 111.304  0.00  0.00    -0.271 N 
ATOM      7  C6   11 d         -11.629 207.368 111.146  0.00  0.00     0.255 A 
ATOM      8  O3   11 d         -11.087 207.318 110.011  0.00  0.00    -0.268 OA
ATOM      9  C7   11 d         -10.841 207.718 112.248  0.00  0.00     0.101 A 
ATOM     10  C8   11 d         -11.428 207.755 113.516  0.00  0.00     0.038 A 
ATOM     11  N3   11 d         -12.763 207.525 113.633  0.00  0.00    -0.233 NA
ATOM     12  C9   11 d         -10.661 208.231 114.712  0.00  0.00     0.070 C 
ENDROOT
BRANCH   3  13
ATOM     13  N1   11 d         -17.075 206.286 111.828  0.00  0.00    -0.113 N 
ATOM     14  O1   11 d         -17.853 207.078 111.546  0.00  0.00    -0.532 OA
ATOM     15  O2   11 d         -17.434 205.366 112.614  0.00  0.00    -0.532 OA
ENDBRANCH   3  13
BRANCH   2  16
ATOM     16  O4   11 d         -15.453 206.942 114.079  0.00  0.00    -0.355 OA
ATOM     17  H7   11 d         -15.430 207.931 114.385  0.00  0.00     0.218 HD
ENDBRANCH   2  16
TORSDOF 2
ENDMDL
MODEL 2
REMARK VINA RESULT:      -6.9      2.267      4.707
REMARK  2 active torsions:
REMARK  status: ('A' for Active; 'I' for Inactive)
REMARK    1  A    between atoms: C2_2  and  O4_16 
REMARK    2  A    between atoms: C3_3  and  N1_4 
ROOT
ATOM      1  C1   11 d         -14.173 206.398 113.013  0.00  0.00     0.173 A 
ATOM      2  C2   11 d         -13.613 206.126 114.281  0.00  0.00     0.146 A 
ATOM      3  C3   11 d         -12.210 206.187 114.446  0.00  0.00     0.141 A 
ATOM      4  C4   11 d         -11.411 206.491 113.324  0.00  0.00     0.057 A 
ATOM      5  C5   11 d         -12.002 206.729 112.078  0.00  0.00     0.105 A 
ATOM      6  N2   11 d         -13.368 206.682 111.924  0.00  0.00    -0.271 N 
ATOM      7  C6   11 d         -13.950 206.914 110.694  0.00  0.00     0.255 A 
ATOM      8  O3   11 d         -13.246 207.152 109.678  0.00  0.00    -0.268 OA
ATOM      9  C7   11 d         -15.342 206.880 110.549  0.00  0.00     0.101 A 
ATOM     10  C8   11 d         -16.134 206.638 111.675  0.00  0.00     0.038 A 
ATOM     11  N3   11 d         -15.529 206.368 112.863  0.00  0.00    -0.233 NA
ATOM     12  C9   11 d         -17.619 206.479 111.559  0.00  0.00     0.070 C 
ENDROOT
BRANCH   3  13
ATOM     13  N1   11 d         -11.629 205.946 115.691  0.00  0.00    -0.113 N 
ATOM     14  O1   11 d         -11.947 205.029 116.301  0.00  0.00    -0.532 OA
ATOM     15  O2   11 d         -11.061 206.890 116.305  0.00  0.00    -0.532 OA
ENDBRANCH   3  13
BRANCH   2  16
ATOM     16  O4   11 d         -14.466 205.935 115.404  0.00  0.00    -0.355 OA
ATOM     17  H7   11 d         -14.262 204.979 115.746  0.00  0.00     0.218 HD
ENDBRANCH   2  16
TORSDOF 2
ENDMDL
MODEL 3
REMARK VINA RESULT:      -6.8      2.564      5.263
REMARK  2 active torsions:
REMARK  status: ('A' for Active; 'I' for Inactive)
REMARK    1  A    between atoms: C2_2  and  O4_16 
REMARK    2  A    between atoms: C3_3  and  N1_4 
ROOT
ATOM      1  C1   11 d         -14.077 206.409 112.978  0.00  0.00     0.173 A 
ATOM      2  C2   11 d         -12.985 206.362 113.873  0.00  0.00     0.146 A 
ATOM      3  C3   11 d         -13.189 205.885 115.188  0.00  0.00     0.141 A 
ATOM      4  C4   11 d         -14.490 205.498 115.572  0.00  0.00     0.057 A 
ATOM      5  C5   11 d         -15.551 205.584 114.665  0.00  0.00     0.105 A 
ATOM      6  N2   11 d         -15.348 206.035 113.382  0.00  0.00    -0.271 N 
ATOM      7  C6   11 d         -16.395 206.123 112.487  0.00  0.00     0.255 A 
ATOM      8  O3   11 d         -17.566 205.814 112.828  0.00  0.00    -0.268 OA
ATOM      9  C7   11 d         -16.176 206.569 111.178  0.00  0.00     0.101 A 
ATOM     10  C8   11 d         -14.876 206.894 110.783  0.00  0.00     0.038 A 
ATOM     11  N3   11 d         -13.873 206.841 111.700  0.00  0.00    -0.233 NA
ATOM     12  C9   11 d         -14.600 207.482 109.433  0.00  0.00     0.070 C 
ENDROOT
BRANCH   3  13
ATOM     13  N1   11 d         -12.127 205.804 116.089  0.00  0.00    -0.113 N 
ATOM     14  O1   11 d         -12.149 205.025 116.929  0.00  0.00    -0.532 OA
ATOM     15  O2   11 d         -11.351 206.790 116.225  0.00  0.00    -0.532 OA
ENDBRANCH   3  13
BRANCH   2  16
ATOM     16  O4   11 d         -11.675 206.656 113.405  0.00  0.00    -0.355 OA
ATOM     17  H7   11 d         -11.474 205.942 112.682  0.00  0.00     0.218 HD
ENDBRANCH   2  16
TORSDOF 2
ENDMDL
MODEL 4
REMARK VINA RESULT:      -6.7      2.645      5.362
REMARK  2 active torsions:
REMARK  status: ('A' for Active; 'I' for Inactive)
REMARK    1  A    between atoms: C2_2  and  O4_16 
REMARK    2  A    between atoms: C3_3  and  N1_4 
ROOT
ATOM      1  C1   11 d         -11.846 207.070 112.980  0.00  0.00     0.173 A 
ATOM      2  C2   11 d         -10.609 207.731 113.146  0.00  0.00     0.146 A 
ATOM      3  C3   11 d          -9.916 208.198 112.005  0.00  0.00     0.141 A 
ATOM      4  C4   11 d         -10.474 207.960 110.731  0.00  0.00     0.057 A 
ATOM      5  C5   11 d         -11.689 207.277 110.607  0.00  0.00     0.105 A 
ATOM      6  N2   11 d         -12.367 206.836 111.719  0.00  0.00    -0.271 N 
ATOM      7  C6   11 d         -13.565 206.160 111.597  0.00  0.00     0.255 A 
ATOM      8  O3   11 d         -14.055 205.911 110.465  0.00  0.00    -0.268 OA
ATOM      9  C7   11 d         -14.257 205.729 112.734  0.00  0.00     0.101 A 
ATOM     10  C8   11 d         -13.732 206.020 113.997  0.00  0.00     0.038 A 
ATOM     11  N3   11 d         -12.528 206.646 114.084  0.00  0.00    -0.233 NA
ATOM     12  C9   11 d         -14.369 205.486 115.243  0.00  0.00     0.070 C 
ENDROOT
BRANCH   3  13
ATOM     13  N1   11 d          -8.703 208.875 112.136  0.00  0.00    -0.113 N 
ATOM     14  O1   11 d          -7.727 208.363 111.825  0.00  0.00    -0.532 OA
ATOM     15  O2   11 d          -8.623 209.860 112.921  0.00  0.00    -0.532 OA
ENDBRANCH   3  13
BRANCH   2  16
ATOM     16  O4   11 d         -10.145 208.046 114.453  0.00  0.00    -0.355 OA
ATOM     17  H7   11 d          -9.142 208.281 114.341  0.00  0.00     0.218 HD
ENDBRANCH   2  16
TORSDOF 2
ENDMDL
MODEL 5
REMARK VINA RESULT:      -6.6      2.606      4.359
REMARK  2 active torsions:
REMARK  status: ('A' for Active; 'I' for Inactive)
REMARK    1  A    between atoms: C2_2  and  O4_16 
REMARK    2  A    between atoms: C3_3  and  N1_4 
ROOT
ATOM      1  C1   11 d         -12.976 206.388 113.053  0.00  0.00     0.173 A 
ATOM      2  C2   11 d         -12.613 206.153 114.397  0.00  0.00     0.146 A 
ATOM      3  C3   11 d         -13.606 205.757 115.323  0.00  0.00     0.141 A 
ATOM      4  C4   11 d         -14.938 205.639 114.875  0.00  0.00     0.057 A 
ATOM      5  C5   11 d         -15.263 205.908 113.541  0.00  0.00     0.105 A 
ATOM      6  N2   11 d         -14.293 206.279 112.640  0.00  0.00    -0.271 N 
ATOM      7  C6   11 d         -14.613 206.546 111.324  0.00  0.00     0.255 A 
ATOM      8  O3   11 d         -15.804 206.478 110.921  0.00  0.00    -0.268 OA
ATOM      9  C7   11 d         -13.618 206.908 110.409  0.00  0.00     0.101 A 
ATOM     10  C8   11 d         -12.290 206.965 110.841  0.00  0.00     0.038 A 
ATOM     11  N3   11 d         -12.012 206.741 112.154  0.00  0.00    -0.233 NA
ATOM     12  C9   11 d         -11.200 207.454 109.937  0.00  0.00     0.070 C 
ENDROOT
BRANCH   3  13
ATOM     13  N1   11 d         -13.275 205.495 116.653  0.00  0.00    -0.113 N 
ATOM     14  O1   11 d         -13.544 206.254 117.468  0.00  0.00    -0.532 OA
ATOM     15  O2   11 d         -12.377 204.647 116.914  0.00  0.00    -0.532 OA
ENDBRANCH   3  13
BRANCH   2  16
ATOM     16  O4   11 d         -11.242 206.175 114.773  0.00  0.00    -0.355 OA
ATOM     17  H7   11 d         -10.711 206.058 113.890  0.00  0.00     0.218 HD
ENDBRANCH   2  16
TORSDOF 2
ENDMDL
MODEL 6
REMARK VINA RESULT:      -6.6      3.419      6.140
REMARK  2 active torsions:
REMARK  status: ('A' for Active; 'I' for Inactive)
REMARK    1  A    between atoms: C2_2  and  O4_16 
REMARK    2  A    between atoms: C3_3  and  N1_4 
ROOT
ATOM      1  C1   11 d         -11.350 208.164 114.290  0.00  0.00     0.173 A 
ATOM      2  C2   11 d         -10.279 208.746 115.003  0.00  0.00     0.146 A 
ATOM      3  C3   11 d          -9.045 208.958 114.346  0.00  0.00     0.141 A 
ATOM      4  C4   11 d          -8.917 208.552 113.001  0.00  0.00     0.057 A 
ATOM      5  C5   11 d          -9.994 207.955 112.337  0.00  0.00     0.105 A 
ATOM      6  N2   11 d         -11.198 207.762 112.974  0.00  0.00    -0.271 N 
ATOM      7  C6   11 d         -12.260 207.171 112.320  0.00  0.00     0.255 A 
ATOM      8  O3   11 d         -12.147 206.773 111.131  0.00  0.00    -0.268 OA
ATOM      9  C7   11 d         -13.485 206.993 112.971  0.00  0.00     0.101 A 
ATOM     10  C8   11 d         -13.627 207.451 114.284  0.00  0.00     0.038 A 
ATOM     11  N3   11 d         -12.550 207.987 114.917  0.00  0.00    -0.233 NA
ATOM     12  C9   11 d         -14.877 207.187 115.067  0.00  0.00     0.070 C 
ENDROOT
BRANCH   3  13
ATOM     13  N1   11 d          -7.974 209.551 115.016  0.00  0.00    -0.113 N 
ATOM     14  O1   11 d          -7.343 210.349 114.489  0.00  0.00    -0.532 OA
ATOM     15  O2   11 d          -7.469 208.971 116.016  0.00  0.00    -0.532 OA
ENDBRANCH   3  13
BRANCH   2  16
ATOM     16  O4   11 d         -10.491 209.239 116.320  0.00  0.00    -0.355 OA
ATOM     17  H7   11 d         -10.855 210.202 116.198  0.00  0.00     0.218 HD
ENDBRANCH   2  16
TORSDOF 2
ENDMDL
MODEL 7
REMARK VINA RESULT:      -6.6      2.276      4.704
REMARK  2 active torsions:
REMARK  status: ('A' for Active; 'I' for Inactive)
REMARK    1  A    between atoms: C2_2  and  O4_16 
REMARK    2  A    between atoms: C3_3  and  N1_4 
ROOT
ATOM      1  C1   11 d         -12.794 206.305 113.667  0.00  0.00     0.173 A 
ATOM      2  C2   11 d         -11.755 206.713 112.801  0.00  0.00     0.146 A 
ATOM      3  C3   11 d         -12.072 207.115 111.483  0.00  0.00     0.141 A 
ATOM      4  C4   11 d         -13.419 207.066 111.067  0.00  0.00     0.057 A 
ATOM      5  C5   11 d         -14.416 206.630 111.946  0.00  0.00     0.105 A 
ATOM      6  N2   11 d         -14.107 206.253 113.232  0.00  0.00    -0.271 N 
ATOM      7  C6   11 d         -15.090 205.820 114.099  0.00  0.00     0.255 A 
ATOM      8  O3   11 d         -16.290 205.738 113.728  0.00  0.00    -0.268 OA
ATOM      9  C7   11 d         -14.770 205.453 115.411  0.00  0.00     0.101 A 
ATOM     10  C8   11 d         -13.443 205.560 115.839  0.00  0.00     0.038 A 
ATOM     11  N3   11 d         -12.491 205.946 114.948  0.00  0.00    -0.233 NA
ATOM     12  C9   11 d         -13.024 205.076 117.193  0.00  0.00     0.070 C 
ENDROOT
BRANCH   3  13
ATOM     13  N1   11 d         -11.072 207.546 110.611  0.00  0.00    -0.113 N 
ATOM     14  O1   11 d         -10.235 208.228 110.994  0.00  0.00    -0.532 OA
ATOM     15  O2   11 d         -11.276 207.512 109.366  0.00  0.00    -0.532 OA
ENDBRANCH   3  13
BRANCH   2  16
ATOM     16  O4   11 d         -10.432 206.853 113.302  0.00  0.00    -0.355 OA
ATOM     17  H7   11 d          -9.946 207.473 112.629  0.00  0.00     0.218 HD
ENDBRANCH   2  16
TORSDOF 2
ENDMDL
MODEL 8
REMARK VINA RESULT:      -6.5      2.471      6.015
REMARK  2 active torsions:
REMARK  status: ('A' for Active; 'I' for Inactive)
REMARK    1  A    between atoms: C2_2  and  O4_16 
REMARK    2  A    between atoms: C3_3  and  N1_4 
ROOT
ATOM      1  C1   11 d         -11.935 207.132 112.753  0.00  0.00     0.173 A 
ATOM      2  C2   11 d         -10.780 207.897 112.478  0.00  0.00     0.146 A 
ATOM      3  C3   11 d          -9.989 208.366 113.551  0.00  0.00     0.141 A 
ATOM      4  C4   11 d         -10.400 208.078 114.870  0.00  0.00     0.057 A 
ATOM      5  C5   11 d         -11.565 207.340 115.103  0.00  0.00     0.105 A 
ATOM      6  N2   11 d         -12.325 206.872 114.056  0.00  0.00    -0.271 N 
ATOM      7  C6   11 d         -13.476 206.146 114.285  0.00  0.00     0.255 A 
ATOM      8  O3   11 d         -13.872 205.912 115.457  0.00  0.00    -0.268 OA
ATOM      9  C7   11 d         -14.236 205.660 113.215  0.00  0.00     0.101 A 
ATOM     10  C8   11 d         -13.794 205.896 111.910  0.00  0.00     0.038 A 
ATOM     11  N3   11 d         -12.681 206.654 111.716  0.00  0.00    -0.233 NA
ATOM     12  C9   11 d         -14.623 205.499 110.727  0.00  0.00     0.070 C 
ENDROOT
BRANCH   3  13
ATOM     13  N1   11 d          -8.830 209.105 113.312  0.00  0.00    -0.113 N 
ATOM     14  O1   11 d          -8.758 210.188 113.678  0.00  0.00    -0.532 OA
ATOM     15  O2   11 d          -8.040 208.742 112.397  0.00  0.00    -0.532 OA
ENDBRANCH   3  13
BRANCH   2  16
ATOM     16  O4   11 d         -10.348 208.064 111.133  0.00  0.00    -0.355 OA
ATOM     17  H7   11 d          -9.325 208.217 111.189  0.00  0.00     0.218 HD
ENDBRANCH   2  16
TORSDOF 2
ENDMDL
MODEL 9
REMARK VINA RESULT:      -6.4      3.289      5.838
REMARK  2 active torsions:
REMARK  status: ('A' for Active; 'I' for Inactive)
REMARK    1  A    between atoms: C2_2  and  O4_16 
REMARK    2  A    between atoms: C3_3  and  N1_4 
ROOT
ATOM      1  C1   11 d         -11.129 207.512 112.863  0.00  0.00     0.173 A 
ATOM      2  C2   11 d         -10.302 207.919 113.933  0.00  0.00     0.146 A 
ATOM      3  C3   11 d          -9.178 208.734 113.667  0.00  0.00     0.141 A 
ATOM      4  C4   11 d          -8.903 209.090 112.330  0.00  0.00     0.057 A 
ATOM      5  C5   11 d          -9.731 208.645 111.294  0.00  0.00     0.105 A 
ATOM      6  N2   11 d         -10.832 207.863 111.557  0.00  0.00    -0.271 N 
ATOM      7  C6   11 d         -11.648 207.422 110.535  0.00  0.00     0.255 A 
ATOM      8  O3   11 d         -11.393 207.704 109.335  0.00  0.00    -0.268 OA
ATOM      9  C7   11 d         -12.775 206.640 110.813  0.00  0.00     0.101 A 
ATOM     10  C8   11 d         -13.079 206.339 112.143  0.00  0.00     0.038 A 
ATOM     11  N3   11 d         -12.231 206.750 113.124  0.00  0.00    -0.233 NA
ATOM     12  C9   11 d         -14.205 205.415 112.492  0.00  0.00     0.070 C 
ENDROOT
BRANCH   3  13
ATOM     13  N1   11 d          -8.354 209.171 114.705  0.00  0.00    -0.113 N 
ATOM     14  O1   11 d          -8.537 208.800 115.773  0.00  0.00    -0.532 OA
ATOM     15  O2   11 d          -7.678 210.226 114.559  0.00  0.00    -0.532 OA
ENDBRANCH   3  13
BRANCH   2  16
ATOM     16  O4   11 d         -10.684 207.628 115.271  0.00  0.00    -0.355 OA
ATOM     17  H7   11 d         -10.117 206.807 115.549  0.00  0.00     0.218 HD
ENDBRANCH   2  16
TORSDOF 2
ENDMDL
MODEL 10
REMARK VINA RESULT:      -6.3      1.581      1.964
REMARK  2 active torsions:
REMARK  status: ('A' for Active; 'I' for Inactive)
REMARK    1  A    between atoms: C2_2  and  O4_16 
REMARK    2  A    between atoms: C3_3  and  N1_4 
ROOT
ATOM      1  C1   11 d         -12.241 207.503 113.154  0.00  0.00     0.173 A 
ATOM      2  C2   11 d         -13.524 207.005 112.837  0.00  0.00     0.146 A 
ATOM      3  C3   11 d         -13.810 206.626 111.505  0.00  0.00     0.141 A 
ATOM      4  C4   11 d         -12.806 206.786 110.527  0.00  0.00     0.057 A 
ATOM      5  C5   11 d         -11.555 207.307 110.876  0.00  0.00     0.105 A 
ATOM      6  N2   11 d         -11.275 207.663 112.175  0.00  0.00    -0.271 N 
ATOM      7  C6   11 d         -10.042 208.179 112.518  0.00  0.00     0.255 A 
ATOM      8  O3   11 d          -9.150 208.359 111.648  0.00  0.00    -0.268 OA
ATOM      9  C7   11 d          -9.761 208.523 113.845  0.00  0.00     0.101 A 
ATOM     10  C8   11 d         -10.737 208.307 114.822  0.00  0.00     0.038 A 
ATOM     11  N3   11 d         -11.957 207.840 114.445  0.00  0.00    -0.233 NA
ATOM     12  C9   11 d         -10.533 208.760 116.236  0.00  0.00     0.070 C 
ENDROOT
BRANCH   3  13
ATOM     13  N1   11 d         -15.060 206.110 111.164  0.00  0.00    -0.113 N 
ATOM     14  O1   11 d         -15.922 206.823 110.913  0.00  0.00    -0.532 OA
ATOM     15  O2   11 d         -15.354 204.927 111.490  0.00  0.00    -0.532 OA
ENDBRANCH   3  13
BRANCH   2  16
ATOM     16  O4   11 d         -14.463 206.758 113.876  0.00  0.00    -0.355 OA
ATOM     17  H7   11 d         -14.225 205.819 114.245  0.00  0.00     0.218 HD
ENDBRANCH   2  16
TORSDOF 2
ENDMDL
