MODEL 1
REMARK VINA RESULT:      -8.3      0.000      0.000
REMARK  1 active torsions:
REMARK  status: ('A' for Active; 'I' for Inactive)
REMARK    1  A    between atoms: C12_13  and  N2_16 
ROOT
ATOM      1  C1   11 d         -12.645 207.372 113.639  0.00  0.00     0.052 A 
ATOM      2  C2   11 d         -13.655 206.823 112.643  0.00  0.00     0.006 C 
ATOM      3  C3   11 d         -14.125 205.415 113.110  0.00  0.00     0.020 C 
ATOM      4  C4   11 d         -15.161 204.834 112.116  0.00  0.00    -0.013 C 
ATOM      5  C5   11 d         -14.514 204.706 110.717  0.00  0.00     0.009 C 
ATOM      6  C6   11 d         -14.061 206.100 110.226  0.00  0.00    -0.013 C 
ATOM      7  C7   11 d         -13.030 206.683 111.221  0.00  0.00     0.020 C 
ATOM      8  C8   11 d         -15.284 207.042 110.142  0.00  0.00     0.009 C 
ATOM      9  C9   11 d         -15.930 207.174 111.540  0.00  0.00    -0.013 C 
ATOM     10  C10  11 d         -14.896 207.759 112.534  0.00  0.00     0.020 C 
ATOM     11  C11  11 d         -16.383 205.779 112.034  0.00  0.00     0.009 C 
ATOM     12  N1   11 d         -11.327 207.597 113.361  0.00  0.00    -0.228 NA
ATOM     13  C12  11 d         -10.699 208.126 114.434  0.00  0.00     0.164 A 
ATOM     14  S1   11 d         -11.677 208.297 115.554  0.00  0.00    -0.062 SA
ATOM     15  C13  11 d         -12.938 207.780 114.941  0.00  0.00     0.081 A 
ENDROOT
BRANCH  13  16
ATOM     16  N2   11 d          -9.369 208.457 114.479  0.00  0.00    -0.378 N 
ATOM     17  H17  11 d          -8.995 209.087 113.809  0.00  0.00     0.158 HD
ATOM     18  H18  11 d          -8.773 208.073 115.175  0.00  0.00     0.158 HD
ENDBRANCH  13  16
TORSDOF 1
ENDMDL
MODEL 2
REMARK VINA RESULT:      -8.0      2.076      3.132
REMARK  1 active torsions:
REMARK  status: ('A' for Active; 'I' for Inactive)
REMARK    1  A    between atoms: C12_13  and  N2_16 
ROOT
ATOM      1  C1   11 d         -13.955 207.058 114.698  0.00  0.00     0.052 A 
ATOM      2  C2   11 d         -14.386 206.660 113.294  0.00  0.00     0.006 C 
ATOM      3  C3   11 d         -14.745 207.937 112.483  0.00  0.00     0.020 C 
ATOM      4  C4   11 d         -15.181 207.561 111.046  0.00  0.00    -0.013 C 
ATOM      5  C5   11 d         -16.426 206.645 111.111  0.00  0.00     0.009 C 
ATOM      6  C6   11 d         -16.081 205.357 111.894  0.00  0.00    -0.013 C 
ATOM      7  C7   11 d         -15.641 205.733 113.329  0.00  0.00     0.020 C 
ATOM      8  C8   11 d         -14.930 204.611 111.182  0.00  0.00     0.009 C 
ATOM      9  C9   11 d         -13.684 205.523 111.120  0.00  0.00    -0.013 C 
ATOM     10  C10  11 d         -13.244 205.897 112.556  0.00  0.00     0.020 C 
ATOM     11  C11  11 d         -14.028 206.813 110.336  0.00  0.00     0.009 C 
ATOM     12  N1   11 d         -14.645 206.754 115.836  0.00  0.00    -0.228 NA
ATOM     13  C12  11 d         -13.989 207.208 116.925  0.00  0.00     0.164 A 
ATOM     14  S1   11 d         -12.718 207.877 116.502  0.00  0.00    -0.062 SA
ATOM     15  C13  11 d         -12.773 207.728 115.017  0.00  0.00     0.081 A 
ENDROOT
BRANCH  13  16
ATOM     16  N2   11 d         -14.425 207.069 118.218  0.00  0.00    -0.378 N 
ATOM     17  H17  11 d         -15.369 206.816 118.394  0.00  0.00     0.158 HD
ATOM     18  H18  11 d         -13.808 207.220 118.982  0.00  0.00     0.158 HD
ENDBRANCH  13  16
TORSDOF 1
ENDMDL
MODEL 3
REMARK VINA RESULT:      -7.8      2.229      2.835
REMARK  1 active torsions:
REMARK  status: ('A' for Active; 'I' for Inactive)
REMARK    1  A    between atoms: C12_13  and  N2_16 
ROOT
ATOM      1  C1   11 d         -14.134 206.483 115.040  0.00  0.00     0.052 A 
ATOM      2  C2   11 d         -14.421 206.389 113.550  0.00  0.00     0.006 C 
ATOM      3  C3   11 d         -13.177 205.806 112.821  0.00  0.00     0.020 C 
ATOM      4  C4   11 d         -13.444 205.693 111.300  0.00  0.00    -0.013 C 
ATOM      5  C5   11 d         -13.746 207.098 110.726  0.00  0.00     0.009 C 
ATOM      6  C6   11 d         -14.995 207.685 111.423  0.00  0.00    -0.013 C 
ATOM      7  C7   11 d         -14.730 207.793 112.943  0.00  0.00     0.020 C 
ATOM      8  C8   11 d         -16.208 206.758 111.177  0.00  0.00     0.009 C 
ATOM      9  C9   11 d         -15.909 205.355 111.753  0.00  0.00    -0.013 C 
ATOM     10  C10  11 d         -15.646 205.466 113.274  0.00  0.00     0.020 C 
ATOM     11  C11  11 d         -14.658 204.767 111.057  0.00  0.00     0.009 C 
ATOM     12  N1   11 d         -14.033 207.652 115.738  0.00  0.00    -0.228 NA
ATOM     13  C12  11 d         -13.814 207.407 117.048  0.00  0.00     0.164 A 
ATOM     14  S1   11 d         -13.775 205.928 117.281  0.00  0.00    -0.062 SA
ATOM     15  C13  11 d         -14.000 205.395 115.904  0.00  0.00     0.081 A 
ENDROOT
BRANCH  13  16
ATOM     16  N2   11 d         -13.658 208.370 118.011  0.00  0.00    -0.378 N 
ATOM     17  H17  11 d         -13.058 208.201 118.784  0.00  0.00     0.158 HD
ATOM     18  H18  11 d         -14.139 209.238 117.946  0.00  0.00     0.158 HD
ENDBRANCH  13  16
TORSDOF 1
ENDMDL
MODEL 4
REMARK VINA RESULT:      -7.2      1.674      2.342
REMARK  1 active torsions:
REMARK  status: ('A' for Active; 'I' for Inactive)
REMARK    1  A    between atoms: C12_13  and  N2_16 
ROOT
ATOM      1  C1   11 d         -10.877 207.995 113.284  0.00  0.00     0.052 A 
ATOM      2  C2   11 d         -12.277 207.406 113.217  0.00  0.00     0.006 C 
ATOM      3  C3   11 d         -12.303 206.048 113.975  0.00  0.00     0.020 C 
ATOM      4  C4   11 d         -13.721 205.428 113.927  0.00  0.00    -0.013 C 
ATOM      5  C5   11 d         -14.126 205.186 112.454  0.00  0.00     0.009 C 
ATOM      6  C6   11 d         -14.130 206.529 111.689  0.00  0.00    -0.013 C 
ATOM      7  C7   11 d         -12.714 207.151 111.741  0.00  0.00     0.020 C 
ATOM      8  C8   11 d         -15.140 207.497 112.348  0.00  0.00     0.009 C 
ATOM      9  C9   11 d         -14.735 207.744 113.819  0.00  0.00    -0.013 C 
ATOM     10  C10  11 d         -13.318 208.367 113.867  0.00  0.00     0.020 C 
ATOM     11  C11  11 d         -14.730 206.399 114.585  0.00  0.00     0.009 C 
ATOM     12  N1   11 d         -10.054 208.162 112.208  0.00  0.00    -0.228 NA
ATOM     13  C12  11 d          -8.895 208.747 112.582  0.00  0.00     0.164 A 
ATOM     14  S1   11 d          -8.924 209.022 114.053  0.00  0.00    -0.062 SA
ATOM     15  C13  11 d         -10.270 208.499 114.436  0.00  0.00     0.081 A 
ENDROOT
BRANCH  13  16
ATOM     16  N2   11 d          -7.857 209.043 111.736  0.00  0.00    -0.378 N 
ATOM     17  H17  11 d          -8.042 209.236 110.779  0.00  0.00     0.158 HD
ATOM     18  H18  11 d          -6.921 209.066 112.068  0.00  0.00     0.158 HD
ENDBRANCH  13  16
TORSDOF 1
ENDMDL
MODEL 5
REMARK VINA RESULT:      -7.1      1.511      2.625
REMARK  1 active torsions:
REMARK  status: ('A' for Active; 'I' for Inactive)
REMARK    1  A    between atoms: C12_13  and  N2_16 
ROOT
ATOM      1  C1   11 d         -11.614 207.534 112.428  0.00  0.00     0.052 A 
ATOM      2  C2   11 d         -12.979 206.890 112.241  0.00  0.00     0.006 C 
ATOM      3  C3   11 d         -14.049 208.000 112.033  0.00  0.00     0.020 C 
ATOM      4  C4   11 d         -15.450 207.371 111.834  0.00  0.00    -0.013 C 
ATOM      5  C5   11 d         -15.825 206.545 113.087  0.00  0.00     0.009 C 
ATOM      6  C6   11 d         -14.785 205.420 113.297  0.00  0.00    -0.013 C 
ATOM      7  C7   11 d         -13.384 206.048 113.491  0.00  0.00     0.020 C 
ATOM      8  C8   11 d         -14.766 204.496 112.058  0.00  0.00     0.009 C 
ATOM      9  C9   11 d         -14.388 205.318 110.806  0.00  0.00    -0.013 C 
ATOM     10  C10  11 d         -12.986 205.944 111.002  0.00  0.00     0.020 C 
ATOM     11  C11  11 d         -15.428 206.445 110.595  0.00  0.00     0.009 C 
ATOM     12  N1   11 d         -10.888 207.490 113.583  0.00  0.00    -0.228 NA
ATOM     13  C12  11 d          -9.703 208.117 113.424  0.00  0.00     0.164 A 
ATOM     14  S1   11 d          -9.591 208.629 112.021  0.00  0.00    -0.062 SA
ATOM     15  C13  11 d         -10.894 208.196 111.433  0.00  0.00     0.081 A 
ENDROOT
BRANCH  13  16
ATOM     16  N2   11 d          -8.750 208.254 114.401  0.00  0.00    -0.378 N 
ATOM     17  H17  11 d          -7.827 208.524 114.153  0.00  0.00     0.158 HD
ATOM     18  H18  11 d          -8.972 208.085 115.355  0.00  0.00     0.158 HD
ENDBRANCH  13  16
TORSDOF 1
ENDMDL
MODEL 6
REMARK VINA RESULT:      -6.9      2.763      5.084
REMARK  1 active torsions:
REMARK  status: ('A' for Active; 'I' for Inactive)
REMARK    1  A    between atoms: C12_13  and  N2_16 
ROOT
ATOM      1  C1   11 d         -14.716 206.918 112.666  0.00  0.00     0.052 A 
ATOM      2  C2   11 d         -13.946 206.846 113.976  0.00  0.00     0.006 C 
ATOM      3  C3   11 d         -14.364 208.036 114.886  0.00  0.00     0.020 C 
ATOM      4  C4   11 d         -13.599 207.984 116.231  0.00  0.00    -0.013 C 
ATOM      5  C5   11 d         -12.079 208.073 115.960  0.00  0.00     0.009 C 
ATOM      6  C6   11 d         -11.639 206.884 115.075  0.00  0.00    -0.013 C 
ATOM      7  C7   11 d         -12.407 206.933 113.733  0.00  0.00     0.020 C 
ATOM      8  C8   11 d         -11.955 205.555 115.800  0.00  0.00     0.009 C 
ATOM      9  C9   11 d         -13.474 205.463 116.068  0.00  0.00    -0.013 C 
ATOM     10  C10  11 d         -14.240 205.510 114.724  0.00  0.00     0.020 C 
ATOM     11  C11  11 d         -13.916 206.654 116.953  0.00  0.00     0.009 C 
ATOM     12  N1   11 d         -14.150 207.155 111.446  0.00  0.00    -0.228 NA
ATOM     13  C12  11 d         -15.086 207.117 110.473  0.00  0.00     0.164 A 
ATOM     14  S1   11 d         -16.423 206.810 111.074  0.00  0.00    -0.062 SA
ATOM     15  C13  11 d         -16.086 206.689 112.524  0.00  0.00     0.081 A 
ENDROOT
BRANCH  13  16
ATOM     16  N2   11 d         -14.840 207.324 109.140  0.00  0.00    -0.378 N 
ATOM     17  H17  11 d         -15.332 208.036 108.654  0.00  0.00     0.158 HD
ATOM     18  H18  11 d         -14.175 206.769 108.653  0.00  0.00     0.158 HD
ENDBRANCH  13  16
TORSDOF 1
ENDMDL
MODEL 7
REMARK VINA RESULT:      -6.6      3.778      5.354
REMARK  1 active torsions:
REMARK  status: ('A' for Active; 'I' for Inactive)
REMARK    1  A    between atoms: C12_13  and  N2_16 
ROOT
ATOM      1  C1   11 d         -14.316 204.975 116.736  0.00  0.00     0.052 A 
ATOM      2  C2   11 d         -13.721 205.934 115.716  0.00  0.00     0.006 C 
ATOM      3  C3   11 d         -14.311 207.355 115.940  0.00  0.00     0.020 C 
ATOM      4  C4   11 d         -13.718 208.355 114.917  0.00  0.00    -0.013 C 
ATOM      5  C5   11 d         -14.066 207.890 113.484  0.00  0.00     0.009 C 
ATOM      6  C6   11 d         -13.467 206.487 113.234  0.00  0.00    -0.013 C 
ATOM      7  C7   11 d         -14.056 205.489 114.259  0.00  0.00     0.020 C 
ATOM      8  C8   11 d         -11.931 206.544 113.397  0.00  0.00     0.009 C 
ATOM      9  C9   11 d         -11.581 207.004 114.830  0.00  0.00    -0.013 C 
ATOM     10  C10  11 d         -12.170 206.003 115.853  0.00  0.00     0.020 C 
ATOM     11  C11  11 d         -12.181 208.408 115.082  0.00  0.00     0.009 C 
ATOM     12  N1   11 d         -15.141 203.931 116.430  0.00  0.00    -0.228 NA
ATOM     13  C12  11 d         -15.468 203.241 117.544  0.00  0.00     0.164 A 
ATOM     14  S1   11 d         -14.793 203.855 118.731  0.00  0.00    -0.062 SA
ATOM     15  C13  11 d         -14.049 204.990 118.106  0.00  0.00     0.081 A 
ENDROOT
BRANCH  13  16
ATOM     16  N2   11 d         -16.289 202.143 117.574  0.00  0.00    -0.378 N 
ATOM     17  H17  11 d         -16.920 201.980 116.824  0.00  0.00     0.158 HD
ATOM     18  H18  11 d         -16.261 201.507 118.337  0.00  0.00     0.158 HD
ENDBRANCH  13  16
TORSDOF 1
ENDMDL
MODEL 8
REMARK VINA RESULT:      -6.6      2.482      3.992
REMARK  1 active torsions:
REMARK  status: ('A' for Active; 'I' for Inactive)
REMARK    1  A    between atoms: C12_13  and  N2_16 
ROOT
ATOM      1  C1   11 d         -10.714 208.084 114.181  0.00  0.00     0.052 A 
ATOM      2  C2   11 d         -12.088 207.558 114.568  0.00  0.00     0.006 C 
ATOM      3  C3   11 d         -13.169 208.234 113.676  0.00  0.00     0.020 C 
ATOM      4  C4   11 d         -14.579 207.712 114.044  0.00  0.00    -0.013 C 
ATOM      5  C5   11 d         -14.878 208.040 115.526  0.00  0.00     0.009 C 
ATOM      6  C6   11 d         -13.827 207.356 116.431  0.00  0.00    -0.013 C 
ATOM      7  C7   11 d         -12.417 207.875 116.059  0.00  0.00     0.020 C 
ATOM      8  C8   11 d         -13.883 205.825 116.222  0.00  0.00     0.009 C 
ATOM      9  C9   11 d         -13.581 205.495 114.743  0.00  0.00    -0.013 C 
ATOM     10  C10  11 d         -12.169 206.013 114.375  0.00  0.00     0.020 C 
ATOM     11  C11  11 d         -14.631 206.180 113.836  0.00  0.00     0.009 C 
ATOM     12  N1   11 d          -9.920 208.845 114.990  0.00  0.00    -0.228 NA
ATOM     13  C12  11 d          -8.746 209.119 114.382  0.00  0.00     0.164 A 
ATOM     14  S1   11 d          -8.720 208.476 113.030  0.00  0.00    -0.062 SA
ATOM     15  C13  11 d         -10.056 207.809 112.982  0.00  0.00     0.081 A 
ENDROOT
BRANCH  13  16
ATOM     16  N2   11 d          -7.737 209.870 114.927  0.00  0.00    -0.378 N 
ATOM     17  H17  11 d          -6.976 210.159 114.358  0.00  0.00     0.158 HD
ATOM     18  H18  11 d          -7.756 210.128 115.887  0.00  0.00     0.158 HD
ENDBRANCH  13  16
TORSDOF 1
ENDMDL
MODEL 9
REMARK VINA RESULT:      -6.3      3.765      5.105
REMARK  1 active torsions:
REMARK  status: ('A' for Active; 'I' for Inactive)
REMARK    1  A    between atoms: C12_13  and  N2_16 
ROOT
ATOM      1  C1   11 d         -13.966 205.394 117.142  0.00  0.00     0.052 A 
ATOM      2  C2   11 d         -13.491 206.171 115.924  0.00  0.00     0.006 C 
ATOM      3  C3   11 d         -12.161 205.553 115.405  0.00  0.00     0.020 C 
ATOM      4  C4   11 d         -11.656 206.322 114.160  0.00  0.00    -0.013 C 
ATOM      5  C5   11 d         -11.406 207.801 114.536  0.00  0.00     0.009 C 
ATOM      6  C6   11 d         -12.724 208.440 115.032  0.00  0.00    -0.013 C 
ATOM      7  C7   11 d         -13.231 207.669 116.274  0.00  0.00     0.020 C 
ATOM      8  C8   11 d         -13.787 208.367 113.912  0.00  0.00     0.009 C 
ATOM      9  C9   11 d         -14.042 206.889 113.538  0.00  0.00    -0.013 C 
ATOM     10  C10  11 d         -14.550 206.120 114.782  0.00  0.00     0.020 C 
ATOM     11  C11  11 d         -12.723 206.248 113.042  0.00  0.00     0.009 C 
ATOM     12  N1   11 d         -14.037 205.904 118.407  0.00  0.00    -0.228 NA
ATOM     13  C12  11 d         -14.537 204.985 119.262  0.00  0.00     0.164 A 
ATOM     14  S1   11 d         -14.855 203.726 118.516  0.00  0.00    -0.062 SA
ATOM     15  C13  11 d         -14.452 204.086 117.123  0.00  0.00     0.081 A 
ENDROOT
BRANCH  13  16
ATOM     16  N2   11 d         -14.725 205.185 120.606  0.00  0.00    -0.378 N 
ATOM     17  H17  11 d         -15.644 205.174 120.981  0.00  0.00     0.158 HD
ATOM     18  H18  11 d         -13.951 205.341 121.210  0.00  0.00     0.158 HD
ENDBRANCH  13  16
TORSDOF 1
ENDMDL
MODEL 10
REMARK VINA RESULT:      -6.3      2.951      4.180
REMARK  1 active torsions:
REMARK  status: ('A' for Active; 'I' for Inactive)
REMARK    1  A    between atoms: C12_13  and  N2_16 
ROOT
ATOM      1  C1   11 d         -10.855 207.359 117.219  0.00  0.00     0.052 A 
ATOM      2  C2   11 d         -12.024 207.305 116.247  0.00  0.00     0.006 C 
ATOM      3  C3   11 d         -12.060 205.909 115.561  0.00  0.00     0.020 C 
ATOM      4  C4   11 d         -13.245 205.824 114.569  0.00  0.00    -0.013 C 
ATOM      5  C5   11 d         -13.082 206.910 113.480  0.00  0.00     0.009 C 
ATOM      6  C6   11 d         -13.068 208.308 114.141  0.00  0.00    -0.013 C 
ATOM      7  C7   11 d         -11.887 208.392 115.136  0.00  0.00     0.020 C 
ATOM      8  C8   11 d         -14.396 208.535 114.899  0.00  0.00     0.009 C 
ATOM      9  C9   11 d         -14.559 207.452 115.990  0.00  0.00    -0.013 C 
ATOM     10  C10  11 d         -13.376 207.539 116.986  0.00  0.00     0.020 C 
ATOM     11  C11  11 d         -14.572 206.053 115.330  0.00  0.00     0.009 C 
ATOM     12  N1   11 d          -9.763 208.165 117.074  0.00  0.00    -0.228 NA
ATOM     13  C12  11 d          -8.921 208.017 118.120  0.00  0.00     0.164 A 
ATOM     14  S1   11 d          -9.491 207.025 119.086  0.00  0.00    -0.062 SA
ATOM     15  C13  11 d         -10.771 206.646 118.416  0.00  0.00     0.081 A 
ENDROOT
BRANCH  13  16
ATOM     16  N2   11 d          -7.730 208.680 118.268  0.00  0.00    -0.378 N 
ATOM     17  H17  11 d          -7.490 209.071 119.149  0.00  0.00     0.158 HD
ATOM     18  H18  11 d          -7.102 208.776 117.503  0.00  0.00     0.158 HD
ENDBRANCH  13  16
TORSDOF 1
ENDMDL
