MODEL 1
REMARK VINA RESULT:      -8.0      0.000      0.000
REMARK  3 active torsions:
REMARK  status: ('A' for Active; 'I' for Inactive)
REMARK    1  A    between atoms: C1_1  and  C2_2 
REMARK       I    between atoms: C1_1  and  N1_8 
REMARK    2  A    between atoms: N1_8  and  N2_9 
REMARK    3  A    between atoms: C6_10  and  C7_11 
ROOT
ATOM      1  N2   11 d         -10.170 207.683 113.063  0.00  0.00    -0.183 NA
ATOM      2  C6   11 d         -11.364 207.815 113.584  0.00  0.00     0.150 C 
ENDROOT
BRANCH   1   3
ATOM      3  N1   11 d          -9.132 208.280 113.783  0.00  0.00    -0.241 N 
ATOM      4  C1   11 d          -7.996 208.779 113.079  0.00  0.00     0.295 C 
ATOM      5  O2   11 d          -7.946 208.664 111.803  0.00  0.00    -0.264 OA
ATOM      6  H4   11 d          -9.227 208.346 114.850  0.00  0.00     0.192 HD
BRANCH   4   7
ATOM      7  C2   11 d          -6.865 209.435 113.796  0.00  0.00     0.144 A 
ATOM      8  O1   11 d          -7.030 210.384 114.690  0.00  0.00    -0.317 OA
ATOM      9  C3   11 d          -5.847 210.730 115.132  0.00  0.00     0.143 A 
ATOM     10  C4   11 d          -4.854 209.989 114.520  0.00  0.00     0.027 A 
ATOM     11  C5   11 d          -5.514 209.147 113.647  0.00  0.00     0.045 A 
ENDBRANCH   4   7
ENDBRANCH   1   3
BRANCH   2  12
ATOM     12  C7   11 d         -12.559 207.265 112.896  0.00  0.00    -0.014 A 
ATOM     13  C8   11 d         -13.857 207.408 113.447  0.00  0.00     0.052 A 
ATOM     14  C9   11 d         -14.946 206.853 112.765  0.00  0.00     0.105 A 
ATOM     15  C10  11 d         -14.783 206.181 111.587  0.00  0.00     0.105 A 
ATOM     16  O4   11 d         -16.284 206.863 113.188  0.00  0.00    -0.323 OA
ATOM     17  O3   11 d         -15.992 205.672 111.093  0.00  0.00    -0.323 OA
ATOM     18  C12  11 d         -13.517 206.020 111.012  0.00  0.00     0.040 A 
ATOM     19  C11  11 d         -16.929 206.067 112.145  0.00  0.00     0.352 A 
ATOM     20  C13  11 d         -12.400 206.568 111.673  0.00  0.00     0.016 A 
ENDBRANCH   2  12
TORSDOF 3
ENDMDL
MODEL 2
REMARK VINA RESULT:      -7.9      1.098      1.799
REMARK  3 active torsions:
REMARK  status: ('A' for Active; 'I' for Inactive)
REMARK    1  A    between atoms: C1_1  and  C2_2 
REMARK       I    between atoms: C1_1  and  N1_8 
REMARK    2  A    between atoms: N1_8  and  N2_9 
REMARK    3  A    between atoms: C6_10  and  C7_11 
ROOT
ATOM      1  N2   11 d         -10.119 208.017 113.451  0.00  0.00    -0.183 NA
ATOM      2  C6   11 d         -10.786 207.334 112.556  0.00  0.00     0.150 C 
ENDROOT
BRANCH   1   3
ATOM      3  N1   11 d          -8.731 208.021 113.291  0.00  0.00    -0.241 N 
ATOM      4  C1   11 d          -7.990 209.177 113.679  0.00  0.00     0.295 C 
ATOM      5  O2   11 d          -8.612 210.192 114.158  0.00  0.00    -0.264 OA
ATOM      6  H4   11 d          -8.264 207.145 112.882  0.00  0.00     0.192 HD
BRANCH   4   7
ATOM      7  C2   11 d          -6.506 209.231 113.541  0.00  0.00     0.144 A 
ATOM      8  O1   11 d          -5.757 210.124 114.148  0.00  0.00    -0.317 OA
ATOM      9  C3   11 d          -4.510 209.887 113.828  0.00  0.00     0.143 A 
ATOM     10  C4   11 d          -4.414 208.797 112.983  0.00  0.00     0.027 A 
ATOM     11  C5   11 d          -5.714 208.370 112.792  0.00  0.00     0.045 A 
ENDBRANCH   4   7
ENDBRANCH   1   3
BRANCH   2  12
ATOM     12  C7   11 d         -12.263 207.214 112.638  0.00  0.00    -0.014 A 
ATOM     13  C8   11 d         -13.000 206.497 111.661  0.00  0.00     0.052 A 
ATOM     14  C9   11 d         -14.393 206.432 111.776  0.00  0.00     0.105 A 
ATOM     15  C10  11 d         -15.052 207.043 112.805  0.00  0.00     0.105 A 
ATOM     16  O4   11 d         -15.273 205.807 110.880  0.00  0.00    -0.323 OA
ATOM     17  O3   11 d         -16.443 206.890 112.711  0.00  0.00    -0.323 OA
ATOM     18  C12  11 d         -14.360 207.759 113.789  0.00  0.00     0.040 A 
ATOM     19  C11  11 d         -16.573 206.148 111.456  0.00  0.00     0.352 A 
ATOM     20  C13  11 d         -12.957 207.842 113.702  0.00  0.00     0.016 A 
ENDBRANCH   2  12
TORSDOF 3
ENDMDL
MODEL 3
REMARK VINA RESULT:      -7.9      1.498      8.380
REMARK  3 active torsions:
REMARK  status: ('A' for Active; 'I' for Inactive)
REMARK    1  A    between atoms: C1_1  and  C2_2 
REMARK       I    between atoms: C1_1  and  N1_8 
REMARK    2  A    between atoms: N1_8  and  N2_9 
REMARK    3  A    between atoms: C6_10  and  C7_11 
ROOT
ATOM      1  N2   11 d         -11.092 206.966 113.030  0.00  0.00    -0.183 NA
ATOM      2  C6   11 d         -10.706 208.203 113.218  0.00  0.00     0.150 C 
ENDROOT
BRANCH   1   3
ATOM      3  N1   11 d         -12.473 206.759 113.044  0.00  0.00    -0.241 N 
ATOM      4  C1   11 d         -13.181 206.705 111.807  0.00  0.00     0.295 C 
ATOM      5  O2   11 d         -12.538 206.857 110.707  0.00  0.00    -0.264 OA
ATOM      6  H4   11 d         -12.959 206.642 113.995  0.00  0.00     0.192 HD
BRANCH   4   7
ATOM      7  C2   11 d         -14.653 206.475 111.763  0.00  0.00     0.144 A 
ATOM      8  O1   11 d         -15.296 205.742 112.644  0.00  0.00    -0.317 OA
ATOM      9  C3   11 d         -16.566 205.755 112.329  0.00  0.00     0.143 A 
ATOM     10  C4   11 d         -16.788 206.524 111.202  0.00  0.00     0.027 A 
ATOM     11  C5   11 d         -15.543 206.992 110.829  0.00  0.00     0.045 A 
ENDBRANCH   4   7
ENDBRANCH   1   3
BRANCH   2  12
ATOM     12  C7   11 d          -9.264 208.551 113.268  0.00  0.00    -0.014 A 
ATOM     13  C8   11 d          -8.698 209.183 114.404  0.00  0.00     0.052 A 
ATOM     14  C9   11 d          -7.336 209.506 114.389  0.00  0.00     0.105 A 
ATOM     15  C10  11 d          -6.548 209.225 113.309  0.00  0.00     0.105 A 
ATOM     16  O4   11 d          -6.628 210.169 115.403  0.00  0.00    -0.323 OA
ATOM     17  O3   11 d          -5.229 209.667 113.485  0.00  0.00    -0.323 OA
ATOM     18  C12  11 d          -7.070 208.602 112.171  0.00  0.00     0.040 A 
ATOM     19  C11  11 d          -5.306 210.311 114.796  0.00  0.00     0.352 A 
ATOM     20  C13  11 d          -8.438 208.262 112.154  0.00  0.00     0.016 A 
ENDBRANCH   2  12
TORSDOF 3
ENDMDL
MODEL 4
REMARK VINA RESULT:      -7.7      1.705      8.624
REMARK  3 active torsions:
REMARK  status: ('A' for Active; 'I' for Inactive)
REMARK    1  A    between atoms: C1_1  and  C2_2 
REMARK       I    between atoms: C1_1  and  N1_8 
REMARK    2  A    between atoms: N1_8  and  N2_9 
REMARK    3  A    between atoms: C6_10  and  C7_11 
ROOT
ATOM      1  N2   11 d         -10.659 207.445 112.551  0.00  0.00    -0.183 NA
ATOM      2  C6   11 d         -10.006 208.533 112.232  0.00  0.00     0.150 C 
ENDROOT
BRANCH   1   3
ATOM      3  N1   11 d         -11.915 207.302 111.956  0.00  0.00    -0.241 N 
ATOM      4  C1   11 d         -12.922 206.550 112.629  0.00  0.00     0.295 C 
ATOM      5  O2   11 d         -12.654 206.012 113.763  0.00  0.00    -0.264 OA
ATOM      6  H4   11 d         -12.082 207.772 111.004  0.00  0.00     0.192 HD
BRANCH   4   7
ATOM      7  C2   11 d         -14.283 206.376 112.046  0.00  0.00     0.144 A 
ATOM      8  O1   11 d         -15.148 205.490 112.484  0.00  0.00    -0.317 OA
ATOM      9  C3   11 d         -16.240 205.606 111.770  0.00  0.00     0.143 A 
ATOM     10  C4   11 d         -16.108 206.604 110.824  0.00  0.00     0.027 A 
ATOM     11  C5   11 d         -14.833 207.106 110.999  0.00  0.00     0.045 A 
ENDBRANCH   4   7
ENDBRANCH   1   3
BRANCH   2  12
ATOM     12  C7   11 d          -8.679 208.826 112.830  0.00  0.00    -0.014 A 
ATOM     13  C8   11 d          -7.480 208.387 112.214  0.00  0.00     0.052 A 
ATOM     14  C9   11 d          -6.257 208.674 112.832  0.00  0.00     0.105 A 
ATOM     15  C10  11 d          -6.198 209.366 114.008  0.00  0.00     0.105 A 
ATOM     16  O4   11 d          -4.987 208.279 112.386  0.00  0.00    -0.323 OA
ATOM     17  O3   11 d          -4.884 209.510 114.475  0.00  0.00    -0.323 OA
ATOM     18  C12  11 d          -7.360 209.816 114.646  0.00  0.00     0.040 A 
ATOM     19  C11  11 d          -4.129 208.771 113.463  0.00  0.00     0.352 A 
ATOM     20  C13  11 d          -8.606 209.544 114.049  0.00  0.00     0.016 A 
ENDBRANCH   2  12
TORSDOF 3
ENDMDL
MODEL 5
REMARK VINA RESULT:      -7.3      1.335      1.925
REMARK  3 active torsions:
REMARK  status: ('A' for Active; 'I' for Inactive)
REMARK    1  A    between atoms: C1_1  and  C2_2 
REMARK       I    between atoms: C1_1  and  N1_8 
REMARK    2  A    between atoms: N1_8  and  N2_9 
REMARK    3  A    between atoms: C6_10  and  C7_11 
ROOT
ATOM      1  N2   11 d         -10.637 208.525 114.888  0.00  0.00    -0.183 NA
ATOM      2  C6   11 d         -10.996 207.561 114.079  0.00  0.00     0.150 C 
ENDROOT
BRANCH   1   3
ATOM      3  N1   11 d          -9.281 208.555 115.221  0.00  0.00    -0.241 N 
ATOM      4  C1   11 d          -8.418 209.463 114.538  0.00  0.00     0.295 C 
ATOM      5  O2   11 d          -8.901 210.227 113.628  0.00  0.00    -0.264 OA
ATOM      6  H4   11 d          -8.931 207.891 115.989  0.00  0.00     0.192 HD
BRANCH   4   7
ATOM      7  C2   11 d          -6.965 209.546 114.861  0.00  0.00     0.144 A 
ATOM      8  O1   11 d          -6.484 209.381 116.073  0.00  0.00    -0.317 OA
ATOM      9  C3   11 d          -5.182 209.504 116.009  0.00  0.00     0.143 A 
ATOM     10  C4   11 d          -4.771 209.755 114.714  0.00  0.00     0.027 A 
ATOM     11  C5   11 d          -5.931 209.787 113.964  0.00  0.00     0.045 A 
ENDBRANCH   4   7
ENDBRANCH   1   3
BRANCH   2  12
ATOM     12  C7   11 d         -12.416 207.391 113.682  0.00  0.00    -0.014 A 
ATOM     13  C8   11 d         -12.772 206.723 112.483  0.00  0.00     0.052 A 
ATOM     14  C9   11 d         -14.126 206.608 112.148  0.00  0.00     0.105 A 
ATOM     15  C10  11 d         -15.104 207.124 112.950  0.00  0.00     0.105 A 
ATOM     16  O4   11 d         -14.648 206.022 110.986  0.00  0.00    -0.323 OA
ATOM     17  O3   11 d         -16.386 206.936 112.411  0.00  0.00    -0.323 OA
ATOM     18  C12  11 d         -14.793 207.790 114.141  0.00  0.00     0.040 A 
ATOM     19  C11  11 d         -16.078 206.282 111.140  0.00  0.00     0.352 A 
ATOM     20  C13  11 d         -13.439 207.921 114.507  0.00  0.00     0.016 A 
ENDBRANCH   2  12
TORSDOF 3
ENDMDL
MODEL 6
REMARK VINA RESULT:      -7.2      4.816      7.871
REMARK  3 active torsions:
REMARK  status: ('A' for Active; 'I' for Inactive)
REMARK    1  A    between atoms: C1_1  and  C2_2 
REMARK       I    between atoms: C1_1  and  N1_8 
REMARK    2  A    between atoms: N1_8  and  N2_9 
REMARK    3  A    between atoms: C6_10  and  C7_11 
ROOT
ATOM      1  N2   11 d         -14.368 205.537 115.047  0.00  0.00    -0.183 NA
ATOM      2  C6   11 d         -14.967 205.437 113.888  0.00  0.00     0.150 C 
ENDROOT
BRANCH   1   3
ATOM      3  N1   11 d         -15.088 205.044 116.138  0.00  0.00    -0.241 N 
ATOM      4  C1   11 d         -14.390 204.374 117.186  0.00  0.00     0.295 C 
ATOM      5  O2   11 d         -13.118 204.229 117.103  0.00  0.00    -0.264 OA
ATOM      6  H4   11 d         -16.152 205.192 116.154  0.00  0.00     0.192 HD
BRANCH   4   7
ATOM      7  C2   11 d         -15.106 203.840 118.380  0.00  0.00     0.144 A 
ATOM      8  O1   11 d         -14.917 204.293 119.598  0.00  0.00    -0.317 OA
ATOM      9  C3   11 d         -15.703 203.624 120.403  0.00  0.00     0.143 A 
ATOM     10  C4   11 d         -16.448 202.692 119.706  0.00  0.00     0.027 A 
ATOM     11  C5   11 d         -16.059 202.828 118.387  0.00  0.00     0.045 A 
ENDBRANCH   4   7
ENDBRANCH   1   3
BRANCH   2  12
ATOM     12  C7   11 d         -14.328 205.962 112.655  0.00  0.00    -0.014 A 
ATOM     13  C8   11 d         -12.956 206.317 112.629  0.00  0.00     0.052 A 
ATOM     14  C9   11 d         -12.411 206.826 111.444  0.00  0.00     0.105 A 
ATOM     15  C10  11 d         -13.171 206.985 110.320  0.00  0.00     0.105 A 
ATOM     16  O4   11 d         -11.092 207.265 111.258  0.00  0.00    -0.323 OA
ATOM     17  O3   11 d         -12.443 207.546 109.261  0.00  0.00    -0.323 OA
ATOM     18  C12  11 d         -14.529 206.646 110.307  0.00  0.00     0.040 A 
ATOM     19  C11  11 d         -11.139 207.767 109.885  0.00  0.00     0.352 A 
ATOM     20  C13  11 d         -15.108 206.129 111.483  0.00  0.00     0.016 A 
ENDBRANCH   2  12
TORSDOF 3
ENDMDL
MODEL 7
REMARK VINA RESULT:      -7.0      5.218      8.053
REMARK  3 active torsions:
REMARK  status: ('A' for Active; 'I' for Inactive)
REMARK    1  A    between atoms: C1_1  and  C2_2 
REMARK       I    between atoms: C1_1  and  N1_8 
REMARK    2  A    between atoms: N1_8  and  N2_9 
REMARK    3  A    between atoms: C6_10  and  C7_11 
ROOT
ATOM      1  N2   11 d         -13.996 205.563 116.337  0.00  0.00    -0.183 NA
ATOM      2  C6   11 d         -14.884 205.866 115.424  0.00  0.00     0.150 C 
ENDROOT
BRANCH   1   3
ATOM      3  N1   11 d         -14.508 205.312 117.612  0.00  0.00    -0.241 N 
ATOM      4  C1   11 d         -14.855 203.976 117.971  0.00  0.00     0.295 C 
ATOM      5  O2   11 d         -14.699 203.033 117.115  0.00  0.00    -0.264 OA
ATOM      6  H4   11 d         -14.621 206.140 118.286  0.00  0.00     0.192 HD
BRANCH   4   7
ATOM      7  C2   11 d         -15.394 203.649 119.322  0.00  0.00     0.144 A 
ATOM      8  O1   11 d         -14.818 204.028 120.440  0.00  0.00    -0.317 OA
ATOM      9  C3   11 d         -15.547 203.592 121.437  0.00  0.00     0.143 A 
ATOM     10  C4   11 d         -16.651 202.901 120.976  0.00  0.00     0.027 A 
ATOM     11  C5   11 d         -16.553 202.933 119.599  0.00  0.00     0.045 A 
ENDBRANCH   4   7
ENDBRANCH   1   3
BRANCH   2  12
ATOM     12  C7   11 d         -14.468 206.197 114.038  0.00  0.00    -0.014 A 
ATOM     13  C8   11 d         -15.406 206.641 113.073  0.00  0.00     0.052 A 
ATOM     14  C9   11 d         -14.962 206.921 111.776  0.00  0.00     0.105 A 
ATOM     15  C10  11 d         -13.649 206.776 111.425  0.00  0.00     0.105 A 
ATOM     16  O4   11 d         -15.758 207.323 110.693  0.00  0.00    -0.323 OA
ATOM     17  O3   11 d         -13.425 207.069 110.072  0.00  0.00    -0.323 OA
ATOM     18  C12  11 d         -12.694 206.342 112.350  0.00  0.00     0.040 A 
ATOM     19  C11  11 d         -14.780 207.365 109.606  0.00  0.00     0.352 A 
ATOM     20  C13  11 d         -13.109 206.053 113.665  0.00  0.00     0.016 A 
ENDBRANCH   2  12
TORSDOF 3
ENDMDL
MODEL 8
REMARK VINA RESULT:      -7.0      3.476      3.683
REMARK  3 active torsions:
REMARK  status: ('A' for Active; 'I' for Inactive)
REMARK    1  A    between atoms: C1_1  and  C2_2 
REMARK       I    between atoms: C1_1  and  N1_8 
REMARK    2  A    between atoms: N1_8  and  N2_9 
REMARK    3  A    between atoms: C6_10  and  C7_11 
ROOT
ATOM      1  N2   11 d         -11.352 208.116 114.923  0.00  0.00    -0.183 NA
ATOM      2  C6   11 d         -11.500 207.022 114.220  0.00  0.00     0.150 C 
ENDROOT
BRANCH   1   3
ATOM      3  N1   11 d         -10.307 208.097 115.850  0.00  0.00    -0.241 N 
ATOM      4  C1   11 d         -10.613 207.993 117.239  0.00  0.00     0.295 C 
ATOM      5  O2   11 d         -11.839 207.928 117.611  0.00  0.00    -0.264 OA
ATOM      6  H4   11 d          -9.300 208.158 115.481  0.00  0.00     0.192 HD
BRANCH   4   7
ATOM      7  C2   11 d          -9.537 207.957 118.271  0.00  0.00     0.144 A 
ATOM      8  O1   11 d          -9.647 208.526 119.450  0.00  0.00    -0.317 OA
ATOM      9  C3   11 d          -8.541 208.298 120.113  0.00  0.00     0.143 A 
ATOM     10  C4   11 d          -7.659 207.547 119.359  0.00  0.00     0.027 A 
ATOM     11  C5   11 d          -8.303 207.326 118.157  0.00  0.00     0.045 A 
ENDBRANCH   4   7
ENDBRANCH   1   3
BRANCH   2  12
ATOM     12  C7   11 d         -12.600 206.896 113.231  0.00  0.00    -0.014 A 
ATOM     13  C8   11 d         -13.959 206.958 113.629  0.00  0.00     0.052 A 
ATOM     14  C9   11 d         -14.956 206.813 112.657  0.00  0.00     0.105 A 
ATOM     15  C10  11 d         -14.645 206.615 111.342  0.00  0.00     0.105 A 
ATOM     16  O4   11 d         -16.340 206.805 112.882  0.00  0.00    -0.323 OA
ATOM     17  O3   11 d         -15.788 206.455 110.544  0.00  0.00    -0.323 OA
ATOM     18  C12  11 d         -13.316 206.547 110.911  0.00  0.00     0.040 A 
ATOM     19  C11  11 d         -16.856 206.526 111.542  0.00  0.00     0.352 A 
ATOM     20  C13  11 d         -12.289 206.691 111.864  0.00  0.00     0.016 A 
ENDBRANCH   2  12
TORSDOF 3
ENDMDL
MODEL 9
REMARK VINA RESULT:      -6.9      5.007      7.437
REMARK  3 active torsions:
REMARK  status: ('A' for Active; 'I' for Inactive)
REMARK    1  A    between atoms: C1_1  and  C2_2 
REMARK       I    between atoms: C1_1  and  N1_8 
REMARK    2  A    between atoms: N1_8  and  N2_9 
REMARK    3  A    between atoms: C6_10  and  C7_11 
ROOT
ATOM      1  N2   11 d         -13.681 206.789 116.200  0.00  0.00    -0.183 NA
ATOM      2  C6   11 d         -13.662 205.915 115.226  0.00  0.00     0.150 C 
ENDROOT
BRANCH   1   3
ATOM      3  N1   11 d         -14.288 206.359 117.381  0.00  0.00    -0.241 N 
ATOM      4  C1   11 d         -13.799 206.842 118.631  0.00  0.00     0.295 C 
ATOM      5  O2   11 d         -12.806 207.655 118.646  0.00  0.00    -0.264 OA
ATOM      6  H4   11 d         -15.113 205.675 117.308  0.00  0.00     0.192 HD
BRANCH   4   7
ATOM      7  C2   11 d         -14.417 206.425 119.922  0.00  0.00     0.144 A 
ATOM      8  O1   11 d         -14.773 207.274 120.859  0.00  0.00    -0.317 OA
ATOM      9  C3   11 d         -15.290 206.589 121.848  0.00  0.00     0.143 A 
ATOM     10  C4   11 d         -15.287 205.236 121.567  0.00  0.00     0.027 A 
ATOM     11  C5   11 d         -14.716 205.126 120.314  0.00  0.00     0.045 A 
ENDBRANCH   4   7
ENDBRANCH   1   3
BRANCH   2  12
ATOM     12  C7   11 d         -13.085 206.262 113.903  0.00  0.00    -0.014 A 
ATOM     13  C8   11 d         -11.893 207.022 113.795  0.00  0.00     0.052 A 
ATOM     14  C9   11 d         -11.404 207.337 112.522  0.00  0.00     0.105 A 
ATOM     15  C10  11 d         -12.050 206.929 111.390  0.00  0.00     0.105 A 
ATOM     16  O4   11 d         -10.271 208.112 112.235  0.00  0.00    -0.323 OA
ATOM     17  O3   11 d         -11.417 207.384 110.224  0.00  0.00    -0.323 OA
ATOM     18  C12  11 d         -13.228 206.177 111.455  0.00  0.00     0.040 A 
ATOM     19  C11  11 d         -10.319 208.178 110.775  0.00  0.00     0.352 A 
ATOM     20  C13  11 d         -13.746 205.842 112.722  0.00  0.00     0.016 A 
ENDBRANCH   2  12
TORSDOF 3
ENDMDL
MODEL 10
REMARK VINA RESULT:      -6.9      5.277      7.409
REMARK  3 active torsions:
REMARK  status: ('A' for Active; 'I' for Inactive)
REMARK    1  A    between atoms: C1_1  and  C2_2 
REMARK       I    between atoms: C1_1  and  N1_8 
REMARK    2  A    between atoms: N1_8  and  N2_9 
REMARK    3  A    between atoms: C6_10  and  C7_11 
ROOT
ATOM      1  N2   11 d         -13.919 205.987 116.605  0.00  0.00    -0.183 NA
ATOM      2  C6   11 d         -14.680 205.618 115.605  0.00  0.00     0.150 C 
ENDROOT
BRANCH   1   3
ATOM      3  N1   11 d         -14.342 205.565 117.868  0.00  0.00    -0.241 N 
ATOM      4  C1   11 d         -14.087 206.396 118.999  0.00  0.00     0.295 C 
ATOM      5  O2   11 d         -13.468 207.508 118.837  0.00  0.00    -0.264 OA
ATOM      6  H4   11 d         -14.852 204.623 117.944  0.00  0.00     0.192 HD
BRANCH   4   7
ATOM      7  C2   11 d         -14.526 206.001 120.368  0.00  0.00     0.144 A 
ATOM      8  O1   11 d         -14.166 206.644 121.455  0.00  0.00    -0.317 OA
ATOM      9  C3   11 d         -14.730 206.053 122.478  0.00  0.00     0.143 A 
ATOM     10  C4   11 d         -15.498 204.980 122.068  0.00  0.00     0.027 A 
ATOM     11  C5   11 d         -15.365 204.941 120.693  0.00  0.00     0.045 A 
ENDBRANCH   4   7
ENDBRANCH   1   3
BRANCH   2  12
ATOM     12  C7   11 d         -14.366 206.037 114.216  0.00  0.00    -0.014 A 
ATOM     13  C8   11 d         -15.393 206.370 113.297  0.00  0.00     0.052 A 
ATOM     14  C9   11 d         -15.041 206.739 111.994  0.00  0.00     0.105 A 
ATOM     15  C10  11 d         -13.736 206.785 111.594  0.00  0.00     0.105 A 
ATOM     16  O4   11 d         -15.926 207.055 110.952  0.00  0.00    -0.323 OA
ATOM     17  O3   11 d         -13.606 207.138 110.243  0.00  0.00    -0.323 OA
ATOM     18  C12  11 d         -12.695 206.464 112.472  0.00  0.00     0.040 A 
ATOM     19  C11  11 d         -15.006 207.256 109.833  0.00  0.00     0.352 A 
ATOM     20  C13  11 d         -13.015 206.089 113.791  0.00  0.00     0.016 A 
ENDBRANCH   2  12
TORSDOF 3
ENDMDL
