MODEL 1
REMARK VINA RESULT:      -9.4      0.000      0.000
REMARK  4 active torsions:
REMARK  status: ('A' for Active; 'I' for Inactive)
REMARK    1  A    between atoms: N2_6  and  N3_7 
REMARK    2  A    between atoms: C5_8  and  C6_9 
REMARK    3  A    between atoms: C9_13  and  N4_14 
REMARK    4  A    between atoms: C11_18  and  O4_19 
ROOT
ATOM      1  C6   11 d         -14.201 205.815 119.846  0.00  0.00     0.095 A 
ATOM      2  O1   11 d         -15.446 205.801 120.254  0.00  0.00    -0.308 OA
ATOM      3  C7   11 d         -15.458 205.477 121.525  0.00  0.00     0.088 A 
ATOM      4  C8   11 d         -16.737 205.294 122.274  0.00  0.00     0.031 A 
ATOM      5  C9   11 d         -16.835 205.235 123.695  0.00  0.00     0.118 A 
ATOM      6  C10  11 d         -18.087 204.967 124.292  0.00  0.00     0.073 A 
ATOM      7  C11  11 d         -19.229 204.756 123.509  0.00  0.00     0.070 A 
ATOM      8  C13  11 d         -19.149 204.892 122.119  0.00  0.00     0.038 A 
ATOM      9  C14  11 d         -17.916 205.144 121.508  0.00  0.00     0.019 A 
ATOM     10  C15  11 d         -14.158 205.269 121.976  0.00  0.00     0.041 A 
ATOM     11  C16  11 d         -13.344 205.495 120.883  0.00  0.00     0.041 A 
ENDROOT
BRANCH   1  12
ATOM     12  C5   11 d         -13.802 206.078 118.451  0.00  0.00     0.176 C 
ATOM     13  N3   11 d         -13.917 205.139 117.542  0.00  0.00    -0.173 NA
BRANCH  13  14
ATOM     14  N2   11 d         -13.443 205.446 116.275  0.00  0.00    -0.191 N 
ATOM     15  C4   11 d         -12.084 205.593 116.107  0.00  0.00     0.239 A 
ATOM     16  N1   11 d         -11.558 205.931 114.891  0.00  0.00    -0.234 NA
ATOM     17  C3   11 d         -12.402 206.136 113.848  0.00  0.00     0.115 A 
ATOM     18  C2   11 d         -13.774 206.006 113.968  0.00  0.00     0.077 A 
ATOM     19  S1   11 d         -12.055 206.529 112.445  0.00  0.00    -0.073 SA
ATOM     20  C1   11 d         -14.306 205.647 115.213  0.00  0.00     0.282 A 
ATOM     21  C18  11 d         -14.392 206.255 112.735  0.00  0.00    -0.026 A 
ATOM     22  O5   11 d         -15.548 205.504 115.358  0.00  0.00    -0.265 OA
ATOM     23  C17  11 d         -13.414 206.615 111.803  0.00  0.00    -0.008 A 
ATOM     24  C19  11 d         -15.866 206.288 112.418  0.00  0.00     0.041 C 
ATOM     25  C22  11 d         -13.704 206.962 110.367  0.00  0.00     0.047 C 
ATOM     26  C21  11 d         -15.158 206.621 109.988  0.00  0.00     0.005 C 
ATOM     27  C20  11 d         -16.152 207.025 111.094  0.00  0.00     0.005 C 
ENDBRANCH  13  14
ENDBRANCH   1  12
BRANCH   5  28
ATOM     28  N4   11 d         -15.749 205.477 124.520  0.00  0.00    -0.115 N 
ATOM     29  O2   11 d         -15.570 206.549 124.881  0.00  0.00    -0.532 OA
ATOM     30  O3   11 d         -15.288 204.536 125.223  0.00  0.00    -0.532 OA
ENDBRANCH   5  28
BRANCH   7  31
ATOM     31  O4   11 d         -20.490 204.559 124.131  0.00  0.00    -0.356 OA
ATOM     32  C12  11 d         -20.751 203.139 124.260  0.00  0.00     0.210 C 
ENDBRANCH   7  31
TORSDOF 4
ENDMDL
MODEL 2
REMARK VINA RESULT:      -9.1      3.190     10.371
REMARK  4 active torsions:
REMARK  status: ('A' for Active; 'I' for Inactive)
REMARK    1  A    between atoms: N2_6  and  N3_7 
REMARK    2  A    between atoms: C5_8  and  C6_9 
REMARK    3  A    between atoms: C9_13  and  N4_14 
REMARK    4  A    between atoms: C11_18  and  O4_19 
ROOT
ATOM      1  C6   11 d         -13.666 207.053 118.039  0.00  0.00     0.095 A 
ATOM      2  O1   11 d         -14.284 206.718 116.933  0.00  0.00    -0.308 OA
ATOM      3  C7   11 d         -13.516 207.038 115.920  0.00  0.00     0.088 A 
ATOM      4  C8   11 d         -13.967 206.859 114.507  0.00  0.00     0.031 A 
ATOM      5  C9   11 d         -13.101 206.902 113.376  0.00  0.00     0.118 A 
ATOM      6  C10  11 d         -13.654 206.810 112.079  0.00  0.00     0.073 A 
ATOM      7  C11  11 d         -15.036 206.680 111.890  0.00  0.00     0.070 A 
ATOM      8  C13  11 d         -15.876 206.558 113.001  0.00  0.00     0.038 A 
ATOM      9  C14  11 d         -15.350 206.660 114.294  0.00  0.00     0.019 A 
ATOM     10  C15  11 d         -12.334 207.611 116.381  0.00  0.00     0.041 A 
ATOM     11  C16  11 d         -12.433 207.614 117.759  0.00  0.00     0.041 A 
ENDROOT
BRANCH   1  12
ATOM     12  C5   11 d         -14.256 206.900 119.383  0.00  0.00     0.176 C 
ATOM     13  N3   11 d         -14.611 205.715 119.818  0.00  0.00    -0.173 NA
BRANCH  13  14
ATOM     14  N2   11 d         -15.230 205.674 121.059  0.00  0.00    -0.191 N 
ATOM     15  C4   11 d         -14.558 206.202 122.139  0.00  0.00     0.239 A 
ATOM     16  N1   11 d         -15.101 206.158 123.393  0.00  0.00    -0.234 NA
ATOM     17  C3   11 d         -16.310 205.568 123.563  0.00  0.00     0.115 A 
ATOM     18  C2   11 d         -17.021 205.019 122.511  0.00  0.00     0.077 A 
ATOM     19  S1   11 d         -17.079 205.389 124.836  0.00  0.00    -0.073 SA
ATOM     20  C1   11 d         -16.468 205.078 121.225  0.00  0.00     0.282 A 
ATOM     21  C18  11 d         -18.239 204.499 122.970  0.00  0.00    -0.026 A 
ATOM     22  O5   11 d         -17.091 204.603 120.240  0.00  0.00    -0.265 OA
ATOM     23  C17  11 d         -18.303 204.656 124.358  0.00  0.00    -0.008 A 
ATOM     24  C19  11 d         -19.293 203.757 122.188  0.00  0.00     0.041 C 
ATOM     25  C22  11 d         -19.465 204.209 125.205  0.00  0.00     0.047 C 
ATOM     26  C21  11 d         -20.671 203.804 124.336  0.00  0.00     0.005 C 
ATOM     27  C20  11 d         -20.245 202.971 123.111  0.00  0.00     0.005 C 
ENDBRANCH  13  14
ENDBRANCH   1  12
BRANCH   5  28
ATOM     28  N4   11 d         -11.725 206.986 113.502  0.00  0.00    -0.115 N 
ATOM     29  O2   11 d         -11.122 206.013 113.536  0.00  0.00    -0.532 OA
ATOM     30  O3   11 d         -11.133 208.030 113.110  0.00  0.00    -0.532 OA
ENDBRANCH   5  28
BRANCH   7  31
ATOM     31  O4   11 d         -15.561 206.517 110.582  0.00  0.00    -0.356 OA
ATOM     32  C12  11 d         -14.842 207.374 109.660  0.00  0.00     0.210 C 
ENDBRANCH   7  31
TORSDOF 4
ENDMDL
MODEL 3
REMARK VINA RESULT:      -9.0      1.954      3.052
REMARK  4 active torsions:
REMARK  status: ('A' for Active; 'I' for Inactive)
REMARK    1  A    between atoms: N2_6  and  N3_7 
REMARK    2  A    between atoms: C5_8  and  C6_9 
REMARK    3  A    between atoms: C9_13  and  N4_14 
REMARK    4  A    between atoms: C11_18  and  O4_19 
ROOT
ATOM      1  C6   11 d         -14.442 206.013 119.825  0.00  0.00     0.095 A 
ATOM      2  O1   11 d         -14.092 204.988 120.562  0.00  0.00    -0.308 OA
ATOM      3  C7   11 d         -14.677 205.102 121.730  0.00  0.00     0.088 A 
ATOM      4  C8   11 d         -14.418 204.130 122.834  0.00  0.00     0.031 A 
ATOM      5  C9   11 d         -15.221 204.014 124.006  0.00  0.00     0.118 A 
ATOM      6  C10  11 d         -14.827 203.121 125.028  0.00  0.00     0.073 A 
ATOM      7  C11  11 d         -13.663 202.352 124.905  0.00  0.00     0.070 A 
ATOM      8  C13  11 d         -12.920 202.408 123.722  0.00  0.00     0.038 A 
ATOM      9  C14  11 d         -13.284 203.296 122.704  0.00  0.00     0.019 A 
ATOM     10  C15  11 d         -15.451 206.258 121.763  0.00  0.00     0.041 A 
ATOM     11  C16  11 d         -15.300 206.844 120.521  0.00  0.00     0.041 A 
ENDROOT
BRANCH   1  12
ATOM     12  C5   11 d         -13.926 206.256 118.465  0.00  0.00     0.176 C 
ATOM     13  N3   11 d         -14.055 205.339 117.535  0.00  0.00    -0.173 NA
BRANCH  13  14
ATOM     14  N2   11 d         -13.470 205.618 116.308  0.00  0.00    -0.191 N 
ATOM     15  C4   11 d         -12.103 205.777 116.261  0.00  0.00     0.239 A 
ATOM     16  N1   11 d         -11.472 206.088 115.089  0.00  0.00    -0.234 NA
ATOM     17  C3   11 d         -12.219 206.257 113.969  0.00  0.00     0.115 A 
ATOM     18  C2   11 d         -13.595 206.114 113.967  0.00  0.00     0.077 A 
ATOM     19  S1   11 d         -11.749 206.617 112.593  0.00  0.00    -0.073 SA
ATOM     20  C1   11 d         -14.235 205.781 115.167  0.00  0.00     0.282 A 
ATOM     21  C18  11 d         -14.100 206.324 112.677  0.00  0.00    -0.026 A 
ATOM     22  O5   11 d         -15.484 205.628 115.203  0.00  0.00    -0.265 OA
ATOM     23  C17  11 d         -13.044 206.670 111.828  0.00  0.00    -0.008 A 
ATOM     24  C19  11 d         -15.539 206.332 112.226  0.00  0.00     0.041 C 
ATOM     25  C22  11 d         -13.205 206.976 110.362  0.00  0.00     0.047 C 
ATOM     26  C21  11 d         -14.616 206.609 109.863  0.00  0.00     0.005 C 
ATOM     27  C20  11 d         -15.710 207.030 110.863  0.00  0.00     0.005 C 
ENDBRANCH  13  14
ENDBRANCH   1  12
BRANCH   5  28
ATOM     28  N4   11 d         -16.404 204.716 124.164  0.00  0.00    -0.115 N 
ATOM     29  O2   11 d         -17.383 204.206 123.858  0.00  0.00    -0.532 OA
ATOM     30  O3   11 d         -16.465 205.634 125.028  0.00  0.00    -0.532 OA
ENDBRANCH   5  28
BRANCH   7  31
ATOM     31  O4   11 d         -13.326 201.409 125.912  0.00  0.00    -0.356 OA
ATOM     32  C12  11 d         -13.159 200.099 125.313  0.00  0.00     0.210 C 
ENDBRANCH   7  31
TORSDOF 4
ENDMDL
MODEL 4
REMARK VINA RESULT:      -8.8      2.262      3.112
REMARK  4 active torsions:
REMARK  status: ('A' for Active; 'I' for Inactive)
REMARK    1  A    between atoms: N2_6  and  N3_7 
REMARK    2  A    between atoms: C5_8  and  C6_9 
REMARK    3  A    between atoms: C9_13  and  N4_14 
REMARK    4  A    between atoms: C11_18  and  O4_19 
ROOT
ATOM      1  C6   11 d         -14.387 205.489 119.738  0.00  0.00     0.095 A 
ATOM      2  O1   11 d         -15.648 205.206 119.952  0.00  0.00    -0.308 OA
ATOM      3  C7   11 d         -15.824 205.066 121.245  0.00  0.00     0.088 A 
ATOM      4  C8   11 d         -17.143 204.659 121.815  0.00  0.00     0.031 A 
ATOM      5  C9   11 d         -17.491 204.770 123.193  0.00  0.00     0.118 A 
ATOM      6  C10  11 d         -18.735 204.268 123.635  0.00  0.00     0.073 A 
ATOM      7  C11  11 d         -19.628 203.662 122.741  0.00  0.00     0.070 A 
ATOM      8  C13  11 d         -19.320 203.624 121.378  0.00  0.00     0.038 A 
ATOM      9  C14  11 d         -18.087 204.103 120.921  0.00  0.00     0.019 A 
ATOM     10  C15  11 d         -14.621 205.267 121.913  0.00  0.00     0.041 A 
ATOM     11  C16  11 d         -13.690 205.548 120.932  0.00  0.00     0.041 A 
ENDROOT
BRANCH   1  12
ATOM     12  C5   11 d         -13.804 205.655 118.394  0.00  0.00     0.176 C 
ATOM     13  N3   11 d         -13.898 206.804 117.769  0.00  0.00    -0.173 NA
BRANCH  13  14
ATOM     14  N2   11 d         -13.393 206.847 116.477  0.00  0.00    -0.191 N 
ATOM     15  C4   11 d         -13.999 206.069 115.516  0.00  0.00     0.239 A 
ATOM     16  N1   11 d         -13.525 206.041 114.234  0.00  0.00    -0.234 NA
ATOM     17  C3   11 d         -12.432 206.782 113.924  0.00  0.00     0.115 A 
ATOM     18  C2   11 d         -11.785 207.574 114.856  0.00  0.00     0.077 A 
ATOM     19  S1   11 d         -11.734 206.888 112.603  0.00  0.00    -0.073 SA
ATOM     20  C1   11 d         -12.283 207.611 116.164  0.00  0.00     0.282 A 
ATOM     21  C18  11 d         -10.706 208.240 114.257  0.00  0.00    -0.026 A 
ATOM     22  O5   11 d         -11.730 208.331 117.036  0.00  0.00    -0.265 OA
ATOM     23  C17  11 d         -10.605 207.831 112.924  0.00  0.00    -0.008 A 
ATOM     24  C19  11 d          -9.694 209.150 114.906  0.00  0.00     0.041 C 
ATOM     25  C22  11 d          -9.558 208.331 111.965  0.00  0.00     0.047 C 
ATOM     26  C21  11 d          -8.785 209.528 112.551  0.00  0.00     0.005 C 
ATOM     27  C20  11 d          -8.432 209.316 114.036  0.00  0.00     0.005 C 
ENDBRANCH  13  14
ENDBRANCH   1  12
BRANCH   5  28
ATOM     28  N4   11 d         -16.668 205.397 124.114  0.00  0.00    -0.115 N 
ATOM     29  O2   11 d         -16.824 206.514 124.309  0.00  0.00    -0.532 OA
ATOM     30  O3   11 d         -16.130 204.711 125.026  0.00  0.00    -0.532 OA
ENDBRANCH   5  28
BRANCH   7  31
ATOM     31  O4   11 d         -20.902 203.230 123.194  0.00  0.00    -0.356 OA
ATOM     32  C12  11 d         -21.161 201.890 122.706  0.00  0.00     0.210 C 
ENDBRANCH   7  31
TORSDOF 4
ENDMDL
MODEL 5
REMARK VINA RESULT:      -8.8      6.216      9.760
REMARK  4 active torsions:
REMARK  status: ('A' for Active; 'I' for Inactive)
REMARK    1  A    between atoms: N2_6  and  N3_7 
REMARK    2  A    between atoms: C5_8  and  C6_9 
REMARK    3  A    between atoms: C9_13  and  N4_14 
REMARK    4  A    between atoms: C11_18  and  O4_19 
ROOT
ATOM      1  C6   11 d          -9.533 208.003 117.795  0.00  0.00     0.095 A 
ATOM      2  O1   11 d          -8.382 207.893 117.179  0.00  0.00    -0.308 OA
ATOM      3  C7   11 d          -7.432 208.222 118.020  0.00  0.00     0.088 A 
ATOM      4  C8   11 d          -6.000 208.279 117.602  0.00  0.00     0.031 A 
ATOM      5  C9   11 d          -4.900 208.336 118.506  0.00  0.00     0.118 A 
ATOM      6  C10  11 d          -3.590 208.480 117.995  0.00  0.00     0.073 A 
ATOM      7  C11  11 d          -3.359 208.568 116.616  0.00  0.00     0.070 A 
ATOM      8  C13  11 d          -4.430 208.431 115.727  0.00  0.00     0.038 A 
ATOM      9  C14  11 d          -5.736 208.303 116.213  0.00  0.00     0.019 A 
ATOM     10  C15  11 d          -7.985 208.565 119.251  0.00  0.00     0.041 A 
ATOM     11  C16  11 d          -9.349 208.415 119.102  0.00  0.00     0.041 A 
ENDROOT
BRANCH   1  12
ATOM     12  C5   11 d         -10.835 207.773 117.141  0.00  0.00     0.176 C 
ATOM     13  N3   11 d         -11.062 206.656 116.492  0.00  0.00    -0.173 NA
BRANCH  13  14
ATOM     14  N2   11 d         -12.282 206.558 115.840  0.00  0.00    -0.191 N 
ATOM     15  C4   11 d         -13.392 206.223 116.584  0.00  0.00     0.239 A 
ATOM     16  N1   11 d         -14.616 206.076 115.992  0.00  0.00    -0.234 NA
ATOM     17  C3   11 d         -14.719 206.247 114.650  0.00  0.00     0.115 A 
ATOM     18  C2   11 d         -13.632 206.577 113.860  0.00  0.00     0.077 A 
ATOM     19  S1   11 d         -15.941 206.116 113.795  0.00  0.00    -0.073 SA
ATOM     20  C1   11 d         -12.383 206.741 114.472  0.00  0.00     0.282 A 
ATOM     21  C18  11 d         -14.031 206.710 112.522  0.00  0.00    -0.026 A 
ATOM     22  O5   11 d         -11.374 207.056 113.789  0.00  0.00    -0.265 OA
ATOM     23  C17  11 d         -15.391 206.403 112.423  0.00  0.00    -0.008 A 
ATOM     24  C19  11 d         -13.173 206.995 111.315  0.00  0.00     0.041 C 
ATOM     25  C22  11 d         -16.171 206.431 111.135  0.00  0.00     0.047 C 
ATOM     26  C21  11 d         -15.359 207.086 110.001  0.00  0.00     0.005 C 
ATOM     27  C20  11 d         -13.889 206.624 110.002  0.00  0.00     0.005 C 
ENDBRANCH  13  14
ENDBRANCH   1  12
BRANCH   5  28
ATOM     28  N4   11 d          -5.063 208.212 119.876  0.00  0.00    -0.115 N 
ATOM     29  O2   11 d          -4.968 207.170 120.342  0.00  0.00    -0.532 OA
ATOM     30  O3   11 d          -4.837 209.209 120.616  0.00  0.00    -0.532 OA
ENDBRANCH   5  28
BRANCH   7  31
ATOM     31  O4   11 d          -2.031 208.639 116.122  0.00  0.00    -0.356 OA
ATOM     32  C12  11 d          -1.633 207.343 115.609  0.00  0.00     0.210 C 
ENDBRANCH   7  31
TORSDOF 4
ENDMDL
MODEL 6
REMARK VINA RESULT:      -8.8      3.761     10.959
REMARK  4 active torsions:
REMARK  status: ('A' for Active; 'I' for Inactive)
REMARK    1  A    between atoms: N2_6  and  N3_7 
REMARK    2  A    between atoms: C5_8  and  C6_9 
REMARK    3  A    between atoms: C9_13  and  N4_14 
REMARK    4  A    between atoms: C11_18  and  O4_19 
ROOT
ATOM      1  C6   11 d         -13.648 206.470 117.534  0.00  0.00     0.095 A 
ATOM      2  O1   11 d         -12.739 207.299 117.083  0.00  0.00    -0.308 OA
ATOM      3  C7   11 d         -12.475 206.982 115.838  0.00  0.00     0.088 A 
ATOM      4  C8   11 d         -11.416 207.689 115.058  0.00  0.00     0.031 A 
ATOM      5  C9   11 d         -11.273 207.609 113.642  0.00  0.00     0.118 A 
ATOM      6  C10  11 d         -10.176 208.248 113.020  0.00  0.00     0.073 A 
ATOM      7  C11  11 d          -9.231 208.955 113.774  0.00  0.00     0.070 A 
ATOM      8  C13  11 d          -9.415 209.099 115.153  0.00  0.00     0.038 A 
ATOM      9  C14  11 d         -10.486 208.462 115.789  0.00  0.00     0.019 A 
ATOM     10  C15  11 d         -13.248 205.892 115.450  0.00  0.00     0.041 A 
ATOM     11  C16  11 d         -14.014 205.566 116.553  0.00  0.00     0.041 A 
ENDROOT
BRANCH   1  12
ATOM     12  C5   11 d         -14.149 206.482 118.921  0.00  0.00     0.176 C 
ATOM     13  N3   11 d         -14.670 205.399 119.446  0.00  0.00    -0.173 NA
BRANCH  13  14
ATOM     14  N2   11 d         -15.189 205.522 120.727  0.00  0.00    -0.191 N 
ATOM     15  C4   11 d         -14.414 206.134 121.686  0.00  0.00     0.239 A 
ATOM     16  N1   11 d         -14.855 206.253 122.975  0.00  0.00    -0.234 NA
ATOM     17  C3   11 d         -16.068 205.740 123.301  0.00  0.00     0.115 A 
ATOM     18  C2   11 d         -16.879 205.111 122.374  0.00  0.00     0.077 A 
ATOM     19  S1   11 d         -16.737 205.736 124.640  0.00  0.00    -0.073 SA
ATOM     20  C1   11 d         -16.430 205.004 121.052  0.00  0.00     0.282 A 
ATOM     21  C18  11 d         -18.075 204.700 122.980  0.00  0.00    -0.026 A 
ATOM     22  O5   11 d         -17.146 204.452 120.177  0.00  0.00    -0.265 OA
ATOM     23  C17  11 d         -18.022 205.011 124.343  0.00  0.00    -0.008 A 
ATOM     24  C19  11 d         -19.215 203.925 122.369  0.00  0.00     0.041 C 
ATOM     25  C22  11 d         -19.128 204.712 125.320  0.00  0.00     0.047 C 
ATOM     26  C21  11 d         -20.414 204.269 124.596  0.00  0.00     0.005 C 
ATOM     27  C20  11 d         -20.118 203.289 123.444  0.00  0.00     0.005 C 
ENDBRANCH  13  14
ENDBRANCH   1  12
BRANCH   5  28
ATOM     28  N4   11 d         -12.199 206.961 112.841  0.00  0.00    -0.115 N 
ATOM     29  O2   11 d         -13.162 207.517 112.566  0.00  0.00    -0.532 OA
ATOM     30  O3   11 d         -11.810 206.043 112.068  0.00  0.00    -0.532 OA
ENDBRANCH   5  28
BRANCH   7  31
ATOM     31  O4   11 d          -8.178 209.648 113.121  0.00  0.00    -0.356 OA
ATOM     32  C12  11 d          -7.499 208.751 112.208  0.00  0.00     0.210 C 
ENDBRANCH   7  31
TORSDOF 4
ENDMDL
MODEL 7
REMARK VINA RESULT:      -8.7      1.844      2.509
REMARK  4 active torsions:
REMARK  status: ('A' for Active; 'I' for Inactive)
REMARK    1  A    between atoms: N2_6  and  N3_7 
REMARK    2  A    between atoms: C5_8  and  C6_9 
REMARK    3  A    between atoms: C9_13  and  N4_14 
REMARK    4  A    between atoms: C11_18  and  O4_19 
ROOT
ATOM      1  C6   11 d         -13.640 205.555 119.098  0.00  0.00     0.095 A 
ATOM      2  O1   11 d         -14.799 205.404 119.689  0.00  0.00    -0.308 OA
ATOM      3  C7   11 d         -14.595 205.331 120.983  0.00  0.00     0.088 A 
ATOM      4  C8   11 d         -15.713 205.075 121.939  0.00  0.00     0.031 A 
ATOM      5  C9   11 d         -15.626 205.272 123.348  0.00  0.00     0.118 A 
ATOM      6  C10  11 d         -16.719 204.909 124.166  0.00  0.00     0.073 A 
ATOM      7  C11  11 d         -17.883 204.359 123.613  0.00  0.00     0.070 A 
ATOM      8  C13  11 d         -17.999 204.240 122.225  0.00  0.00     0.038 A 
ATOM      9  C14  11 d         -16.922 204.580 121.398  0.00  0.00     0.019 A 
ATOM     10  C15  11 d         -13.235 205.440 121.256  0.00  0.00     0.041 A 
ATOM     11  C16  11 d         -12.618 205.592 120.029  0.00  0.00     0.041 A 
ENDROOT
BRANCH   1  12
ATOM     12  C5   11 d         -13.471 205.613 117.634  0.00  0.00     0.176 C 
ATOM     13  N3   11 d         -14.137 206.493 116.925  0.00  0.00    -0.173 NA
BRANCH  13  14
ATOM     14  N2   11 d         -13.979 206.423 115.548  0.00  0.00    -0.191 N 
ATOM     15  C4   11 d         -14.885 205.678 114.827  0.00  0.00     0.239 A 
ATOM     16  N1   11 d         -14.761 205.541 113.472  0.00  0.00    -0.234 NA
ATOM     17  C3   11 d         -13.718 206.140 112.846  0.00  0.00     0.115 A 
ATOM     18  C2   11 d         -12.779 206.893 113.528  0.00  0.00     0.077 A 
ATOM     19  S1   11 d         -13.375 206.109 111.389  0.00  0.00    -0.073 SA
ATOM     20  C1   11 d         -12.917 207.043 114.914  0.00  0.00     0.282 A 
ATOM     21  C18  11 d         -11.830 207.407 112.633  0.00  0.00    -0.026 A 
ATOM     22  O5   11 d         -12.091 207.733 115.566  0.00  0.00    -0.265 OA
ATOM     23  C17  11 d         -12.116 206.932 111.349  0.00  0.00    -0.008 A 
ATOM     24  C19  11 d         -10.600 208.224 112.941  0.00  0.00     0.041 C 
ATOM     25  C22  11 d         -11.306 207.269 110.125  0.00  0.00     0.047 C 
ATOM     26  C21  11 d         -10.295 208.396 110.412  0.00  0.00     0.005 C 
ATOM     27  C20  11 d          -9.595 208.209 111.773  0.00  0.00     0.005 C 
ENDBRANCH  13  14
ENDBRANCH   1  12
BRANCH   5  28
ATOM     28  N4   11 d         -14.518 205.850 123.946  0.00  0.00    -0.115 N 
ATOM     29  O2   11 d         -14.526 206.981 124.123  0.00  0.00    -0.532 OA
ATOM     30  O3   11 d         -13.779 205.145 124.686  0.00  0.00    -0.532 OA
ENDBRANCH   5  28
BRANCH   7  31
ATOM     31  O4   11 d         -18.995 204.069 124.446  0.00  0.00    -0.356 OA
ATOM     32  C12  11 d         -20.222 204.236 123.692  0.00  0.00     0.210 C 
ENDBRANCH   7  31
TORSDOF 4
ENDMDL
MODEL 8
REMARK VINA RESULT:      -8.4      6.466      8.702
REMARK  4 active torsions:
REMARK  status: ('A' for Active; 'I' for Inactive)
REMARK    1  A    between atoms: N2_6  and  N3_7 
REMARK    2  A    between atoms: C5_8  and  C6_9 
REMARK    3  A    between atoms: C9_13  and  N4_14 
REMARK    4  A    between atoms: C11_18  and  O4_19 
ROOT
ATOM      1  C6   11 d          -8.806 208.161 118.448  0.00  0.00     0.095 A 
ATOM      2  O1   11 d          -7.907 209.045 118.803  0.00  0.00    -0.308 OA
ATOM      3  C7   11 d          -7.848 209.070 120.113  0.00  0.00     0.088 A 
ATOM      4  C8   11 d          -6.972 210.037 120.839  0.00  0.00     0.031 A 
ATOM      5  C9   11 d          -6.632 209.933 122.220  0.00  0.00     0.118 A 
ATOM      6  C10  11 d          -5.869 210.958 122.823  0.00  0.00     0.073 A 
ATOM      7  C11  11 d          -5.445 212.071 122.087  0.00  0.00     0.070 A 
ATOM      8  C13  11 d          -5.710 212.133 120.715  0.00  0.00     0.038 A 
ATOM      9  C14  11 d          -6.476 211.136 120.101  0.00  0.00     0.019 A 
ATOM     10  C15  11 d          -8.752 208.156 120.647  0.00  0.00     0.041 A 
ATOM     11  C16  11 d          -9.368 207.563 119.562  0.00  0.00     0.041 A 
ENDROOT
BRANCH   1  12
ATOM     12  C5   11 d          -9.191 207.903 117.048  0.00  0.00     0.176 C 
ATOM     13  N3   11 d         -10.221 208.521 116.521  0.00  0.00    -0.173 NA
BRANCH  13  14
ATOM     14  N2   11 d         -10.561 208.158 115.225  0.00  0.00    -0.191 N 
ATOM     15  C4   11 d          -9.727 208.548 114.201  0.00  0.00     0.239 A 
ATOM     16  N1   11 d         -10.027 208.253 112.900  0.00  0.00    -0.234 NA
ATOM     17  C3   11 d         -11.174 207.581 112.629  0.00  0.00     0.115 A 
ATOM     18  C2   11 d         -12.046 207.175 113.623  0.00  0.00     0.077 A 
ATOM     19  S1   11 d         -11.710 207.173 111.292  0.00  0.00    -0.073 SA
ATOM     20  C1   11 d         -11.728 207.467 114.955  0.00  0.00     0.282 A 
ATOM     21  C18  11 d         -13.132 206.489 113.061  0.00  0.00    -0.026 A 
ATOM     22  O5   11 d         -12.489 207.100 115.888  0.00  0.00    -0.265 OA
ATOM     23  C17  11 d         -13.001 206.498 111.668  0.00  0.00    -0.008 A 
ATOM     24  C19  11 d         -14.346 205.929 113.758  0.00  0.00     0.041 C 
ATOM     25  C22  11 d         -13.986 205.861 110.724  0.00  0.00     0.047 C 
ATOM     26  C21  11 d         -15.001 204.982 111.479  0.00  0.00     0.005 C 
ATOM     27  C20  11 d         -15.500 205.658 112.772  0.00  0.00     0.005 C 
ENDBRANCH  13  14
ENDBRANCH   1  12
BRANCH   5  28
ATOM     28  N4   11 d          -6.987 208.836 122.987  0.00  0.00    -0.115 N 
ATOM     29  O2   11 d          -6.228 207.986 123.103  0.00  0.00    -0.532 OA
ATOM     30  O3   11 d          -7.860 208.971 123.888  0.00  0.00    -0.532 OA
ENDBRANCH   5  28
BRANCH   7  31
ATOM     31  O4   11 d          -4.619 213.052 122.696  0.00  0.00    -0.356 OA
ATOM     32  C12  11 d          -4.240 212.610 124.024  0.00  0.00     0.210 C 
ENDBRANCH   7  31
TORSDOF 4
ENDMDL
MODEL 9
REMARK VINA RESULT:      -8.4      3.517     10.734
REMARK  4 active torsions:
REMARK  status: ('A' for Active; 'I' for Inactive)
REMARK    1  A    between atoms: N2_6  and  N3_7 
REMARK    2  A    between atoms: C5_8  and  C6_9 
REMARK    3  A    between atoms: C9_13  and  N4_14 
REMARK    4  A    between atoms: C11_18  and  O4_19 
ROOT
ATOM      1  C6   11 d         -13.636 206.988 117.998  0.00  0.00     0.095 A 
ATOM      2  O1   11 d         -14.250 206.677 116.884  0.00  0.00    -0.308 OA
ATOM      3  C7   11 d         -13.486 207.035 115.880  0.00  0.00     0.088 A 
ATOM      4  C8   11 d         -13.936 206.890 114.463  0.00  0.00     0.031 A 
ATOM      5  C9   11 d         -13.071 206.976 113.333  0.00  0.00     0.118 A 
ATOM      6  C10  11 d         -13.623 206.914 112.034  0.00  0.00     0.073 A 
ATOM      7  C11  11 d         -15.003 206.772 111.842  0.00  0.00     0.070 A 
ATOM      8  C13  11 d         -15.841 206.608 112.949  0.00  0.00     0.038 A 
ATOM      9  C14  11 d         -15.317 206.681 114.245  0.00  0.00     0.019 A 
ATOM     10  C15  11 d         -12.312 207.610 116.357  0.00  0.00     0.041 A 
ATOM     11  C16  11 d         -12.410 207.572 117.734  0.00  0.00     0.041 A 
ENDROOT
BRANCH   1  12
ATOM     12  C5   11 d         -14.223 206.790 119.337  0.00  0.00     0.176 C 
ATOM     13  N3   11 d         -14.865 205.682 119.621  0.00  0.00    -0.173 NA
BRANCH  13  14
ATOM     14  N2   11 d         -15.453 205.614 120.875  0.00  0.00    -0.191 N 
ATOM     15  C4   11 d         -16.404 206.556 121.199  0.00  0.00     0.239 A 
ATOM     16  N1   11 d         -16.994 206.563 122.433  0.00  0.00    -0.234 NA
ATOM     17  C3   11 d         -16.614 205.634 123.345  0.00  0.00     0.115 A 
ATOM     18  C2   11 d         -15.659 204.672 123.069  0.00  0.00     0.077 A 
ATOM     19  S1   11 d         -17.104 205.467 124.750  0.00  0.00    -0.073 SA
ATOM     20  C1   11 d         -15.068 204.659 121.799  0.00  0.00     0.282 A 
ATOM     21  C18  11 d         -15.480 203.836 124.181  0.00  0.00    -0.026 A 
ATOM     22  O5   11 d         -14.206 203.791 121.506  0.00  0.00    -0.265 OA
ATOM     23  C17  11 d         -16.288 204.295 125.226  0.00  0.00    -0.008 A 
ATOM     24  C19  11 d         -14.502 202.701 124.349  0.00  0.00     0.041 C 
ATOM     25  C22  11 d         -16.357 203.649 126.584  0.00  0.00     0.047 C 
ATOM     26  C21  11 d         -15.639 202.286 126.597  0.00  0.00     0.005 C 
ATOM     27  C20  11 d         -14.301 202.332 125.832  0.00  0.00     0.005 C 
ENDBRANCH  13  14
ENDBRANCH   1  12
BRANCH   5  28
ATOM     28  N4   11 d         -11.696 207.074 113.461  0.00  0.00    -0.115 N 
ATOM     29  O2   11 d         -11.075 206.113 113.404  0.00  0.00    -0.532 OA
ATOM     30  O3   11 d         -11.125 208.159 113.164  0.00  0.00    -0.532 OA
ENDBRANCH   5  28
BRANCH   7  31
ATOM     31  O4   11 d         -15.527 206.640 110.529  0.00  0.00    -0.356 OA
ATOM     32  C12  11 d         -14.712 207.400 109.602  0.00  0.00     0.210 C 
ENDBRANCH   7  31
TORSDOF 4
ENDMDL
MODEL 10
REMARK VINA RESULT:      -8.3      6.272      8.750
REMARK  4 active torsions:
REMARK  status: ('A' for Active; 'I' for Inactive)
REMARK    1  A    between atoms: N2_6  and  N3_7 
REMARK    2  A    between atoms: C5_8  and  C6_9 
REMARK    3  A    between atoms: C9_13  and  N4_14 
REMARK    4  A    between atoms: C11_18  and  O4_19 
ROOT
ATOM      1  C6   11 d          -8.803 208.071 117.886  0.00  0.00     0.095 A 
ATOM      2  O1   11 d          -8.636 208.481 119.119  0.00  0.00    -0.308 OA
ATOM      3  C7   11 d          -7.377 208.815 119.275  0.00  0.00     0.088 A 
ATOM      4  C8   11 d          -6.840 209.250 120.599  0.00  0.00     0.031 A 
ATOM      5  C9   11 d          -5.585 209.899 120.783  0.00  0.00     0.118 A 
ATOM      6  C10  11 d          -5.138 210.182 122.093  0.00  0.00     0.073 A 
ATOM      7  C11  11 d          -5.908 209.834 123.210  0.00  0.00     0.070 A 
ATOM      8  C13  11 d          -7.175 209.270 123.026  0.00  0.00     0.038 A 
ATOM      9  C14  11 d          -7.630 208.967 121.738  0.00  0.00     0.019 A 
ATOM     10  C15  11 d          -6.682 208.616 118.086  0.00  0.00     0.041 A 
ATOM     11  C16  11 d          -7.613 208.138 117.185  0.00  0.00     0.041 A 
ENDROOT
BRANCH   1  12
ATOM     12  C5   11 d         -10.082 207.554 117.363  0.00  0.00     0.176 C 
ATOM     13  N3   11 d         -10.539 207.969 116.206  0.00  0.00    -0.173 NA
BRANCH  13  14
ATOM     14  N2   11 d         -11.786 207.493 115.828  0.00  0.00    -0.191 N 
ATOM     15  C4   11 d         -12.622 207.009 116.810  0.00  0.00     0.239 A 
ATOM     16  N1   11 d         -13.849 206.494 116.497  0.00  0.00    -0.234 NA
ATOM     17  C3   11 d         -14.227 206.449 115.195  0.00  0.00     0.115 A 
ATOM     18  C2   11 d         -13.420 206.916 114.173  0.00  0.00     0.077 A 
ATOM     19  S1   11 d         -15.503 205.914 114.624  0.00  0.00    -0.073 SA
ATOM     20  C1   11 d         -12.170 207.457 114.500  0.00  0.00     0.282 A 
ATOM     21  C18  11 d         -14.068 206.765 112.939  0.00  0.00    -0.026 A 
ATOM     22  O5   11 d         -11.414 207.906 113.599  0.00  0.00    -0.265 OA
ATOM     23  C17  11 d         -15.297 206.131 113.148  0.00  0.00    -0.008 A 
ATOM     24  C19  11 d         -13.541 207.077 111.562  0.00  0.00     0.041 C 
ATOM     25  C22  11 d         -16.270 205.794 112.050  0.00  0.00     0.047 C 
ATOM     26  C21  11 d         -15.870 206.461 110.720  0.00  0.00     0.005 C 
ATOM     27  C20  11 d         -14.354 206.368 110.461  0.00  0.00     0.005 C 
ENDBRANCH  13  14
ENDBRANCH   1  12
BRANCH   5  28
ATOM     28  N4   11 d          -4.800 210.305 119.716  0.00  0.00    -0.115 N 
ATOM     29  O2   11 d          -4.915 211.379 119.336  0.00  0.00    -0.532 OA
ATOM     30  O3   11 d          -3.704 209.720 119.500  0.00  0.00    -0.532 OA
ENDBRANCH   5  28
BRANCH   7  31
ATOM     31  O4   11 d          -5.473 210.193 124.512  0.00  0.00    -0.356 OA
ATOM     32  C12  11 d          -6.616 210.275 125.400  0.00  0.00     0.210 C 
ENDBRANCH   7  31
TORSDOF 4
ENDMDL
