MODEL 1
REMARK VINA RESULT:      -8.0      0.000      0.000
REMARK  1 active torsions:
REMARK  status: ('A' for Active; 'I' for Inactive)
REMARK    1  A    between atoms: N1_3  and  N3_15 
ROOT
ATOM      1  C1   11 d         -12.544 207.652 113.587  0.00  0.00     0.052 A 
ATOM      2  C2   11 d         -12.348 208.242 114.901  0.00  0.00     0.155 A 
ATOM      3  N1   11 d         -11.036 208.726 115.154  0.00  0.00    -0.211 N 
ATOM      4  C3   11 d          -9.973 208.606 114.229  0.00  0.00     0.343 A 
ATOM      5  O1   11 d          -8.881 209.054 114.506  0.00  0.00    -0.245 OA
ATOM      6  N2   11 d         -10.231 207.976 113.037  0.00  0.00    -0.300 N 
ATOM      7  C4   11 d         -11.481 207.547 112.749  0.00  0.00     0.093 A 
ATOM      8  S1   11 d         -11.791 206.830 111.266  0.00  0.00    -0.075 SA
ATOM      9  C5   11 d         -13.430 206.613 111.700  0.00  0.00    -0.008 A 
ATOM     10  C6   11 d         -13.717 207.105 112.967  0.00  0.00    -0.028 A 
ATOM     11  C7   11 d         -15.094 207.009 113.559  0.00  0.00     0.041 C 
ATOM     12  C8   11 d         -16.155 206.686 112.494  0.00  0.00     0.005 C 
ATOM     13  C9   11 d         -15.689 205.576 111.540  0.00  0.00     0.005 C 
ATOM     14  C10  11 d         -14.421 205.982 110.773  0.00  0.00     0.047 C 
ATOM     15  N4   11 d         -13.361 208.310 115.797  0.00  0.00    -0.282 NA
ATOM     16  H    11 d          -9.431 207.820 112.324  0.00  0.00     0.171 HD
ATOM     17  H    11 d         -14.337 207.922 115.540  0.00  0.00     0.188 HD
ENDROOT
BRANCH   3  18
ATOM     18  N3   11 d         -10.824 209.334 116.360  0.00  0.00    -0.237 NA
ATOM     19  H    11 d          -9.774 209.135 116.698  0.00  0.00     0.143 HD
ATOM     20  H    11 d         -10.980 210.438 116.255  0.00  0.00     0.143 HD
ENDBRANCH   3  18
TORSDOF 1
ENDMDL
MODEL 2
REMARK VINA RESULT:      -8.0      1.870      3.142
REMARK  1 active torsions:
REMARK  status: ('A' for Active; 'I' for Inactive)
REMARK    1  A    between atoms: N1_3  and  N3_15 
ROOT
ATOM      1  C1   11 d         -10.949 207.755 112.758  0.00  0.00     0.052 A 
ATOM      2  C2   11 d          -9.989 208.405 111.882  0.00  0.00     0.155 A 
ATOM      3  N1   11 d          -8.896 209.028 112.543  0.00  0.00    -0.211 N 
ATOM      4  C3   11 d          -8.761 209.069 113.950  0.00  0.00     0.343 A 
ATOM      5  O1   11 d          -7.795 209.607 114.447  0.00  0.00    -0.245 OA
ATOM      6  N2   11 d          -9.750 208.486 114.704  0.00  0.00    -0.300 N 
ATOM      7  C4   11 d         -10.777 207.844 114.102  0.00  0.00     0.093 A 
ATOM      8  S1   11 d         -11.946 207.089 115.037  0.00  0.00    -0.075 SA
ATOM      9  C5   11 d         -12.772 206.594 113.625  0.00  0.00    -0.008 A 
ATOM     10  C6   11 d         -12.134 207.002 112.461  0.00  0.00    -0.028 A 
ATOM     11  C7   11 d         -12.692 206.688 111.102  0.00  0.00     0.041 C 
ATOM     12  C8   11 d         -13.763 205.588 111.162  0.00  0.00     0.005 C 
ATOM     13  C9   11 d         -14.744 205.808 112.323  0.00  0.00     0.005 C 
ATOM     14  C10  11 d         -14.030 205.785 113.683  0.00  0.00     0.047 C 
ATOM     15  N4   11 d         -10.151 208.401 110.538  0.00  0.00    -0.282 NA
ATOM     16  H    11 d          -9.708 208.540 115.785  0.00  0.00     0.171 HD
ATOM     17  H    11 d         -11.007 207.907 110.098  0.00  0.00     0.188 HD
ENDROOT
BRANCH   3  18
ATOM     18  N3   11 d          -7.943 209.608 111.751  0.00  0.00    -0.237 NA
ATOM     19  H    11 d          -7.732 208.943 110.874  0.00  0.00     0.143 HD
ATOM     20  H    11 d          -8.313 210.600 111.388  0.00  0.00     0.143 HD
ENDBRANCH   3  18
TORSDOF 1
ENDMDL
MODEL 3
REMARK VINA RESULT:      -7.8      1.645      2.678
REMARK  1 active torsions:
REMARK  status: ('A' for Active; 'I' for Inactive)
REMARK    1  A    between atoms: N1_3  and  N3_15 
ROOT
ATOM      1  C1   11 d         -12.665 207.599 113.390  0.00  0.00     0.052 A 
ATOM      2  C2   11 d         -11.247 207.825 113.170  0.00  0.00     0.155 A 
ATOM      3  N1   11 d         -10.522 208.262 114.310  0.00  0.00    -0.211 N 
ATOM      4  C3   11 d         -11.125 208.513 115.564  0.00  0.00     0.343 A 
ATOM      5  O1   11 d         -10.442 208.872 116.500  0.00  0.00    -0.245 OA
ATOM      6  N2   11 d         -12.482 208.336 115.667  0.00  0.00    -0.300 N 
ATOM      7  C4   11 d         -13.191 207.876 114.611  0.00  0.00     0.093 A 
ATOM      8  S1   11 d         -14.839 207.613 114.770  0.00  0.00    -0.075 SA
ATOM      9  C5   11 d         -14.927 207.100 113.142  0.00  0.00    -0.008 A 
ATOM     10  C6   11 d         -13.692 207.125 112.507  0.00  0.00    -0.028 A 
ATOM     11  C7   11 d         -13.536 206.728 111.067  0.00  0.00     0.041 C 
ATOM     12  C8   11 d         -14.761 205.957 110.549  0.00  0.00     0.005 C 
ATOM     13  C9   11 d         -16.077 206.615 110.987  0.00  0.00     0.005 C 
ATOM     14  C10  11 d         -16.211 206.653 112.518  0.00  0.00     0.047 C 
ATOM     15  N4   11 d         -10.687 207.626 111.953  0.00  0.00    -0.282 NA
ATOM     16  H    11 d         -12.988 208.567 116.596  0.00  0.00     0.171 HD
ATOM     17  H    11 d         -11.297 207.292 111.124  0.00  0.00     0.188 HD
ENDROOT
BRANCH   3  18
ATOM     18  N3   11 d          -9.173 208.437 114.156  0.00  0.00    -0.237 NA
ATOM     19  H    11 d          -8.783 207.694 113.413  0.00  0.00     0.143 HD
ATOM     20  H    11 d          -8.972 209.475 113.787  0.00  0.00     0.143 HD
ENDBRANCH   3  18
TORSDOF 1
ENDMDL
MODEL 4
REMARK VINA RESULT:      -7.7      1.635      1.827
REMARK  1 active torsions:
REMARK  status: ('A' for Active; 'I' for Inactive)
REMARK    1  A    between atoms: N1_3  and  N3_15 
ROOT
ATOM      1  C1   11 d         -13.188 206.927 114.852  0.00  0.00     0.052 A 
ATOM      2  C2   11 d         -13.413 207.260 116.248  0.00  0.00     0.155 A 
ATOM      3  N1   11 d         -12.263 207.697 116.957  0.00  0.00    -0.211 N 
ATOM      4  C3   11 d         -10.973 207.761 116.380  0.00  0.00     0.343 A 
ATOM      5  O1   11 d         -10.037 208.156 117.041  0.00  0.00    -0.245 OA
ATOM      6  N2   11 d         -10.838 207.365 115.072  0.00  0.00    -0.300 N 
ATOM      7  C4   11 d         -11.924 206.989 114.359  0.00  0.00     0.093 A 
ATOM      8  S1   11 d         -11.750 206.562 112.747  0.00  0.00    -0.075 SA
ATOM      9  C5   11 d         -13.428 206.255 112.635  0.00  0.00    -0.008 A 
ATOM     10  C6   11 d         -14.096 206.498 113.827  0.00  0.00    -0.028 A 
ATOM     11  C7   11 d         -15.577 206.282 113.962  0.00  0.00     0.041 C 
ATOM     12  C8   11 d         -16.265 206.159 112.593  0.00  0.00     0.005 C 
ATOM     13  C9   11 d         -15.477 205.252 111.636  0.00  0.00     0.005 C 
ATOM     14  C10  11 d         -14.069 205.803 111.360  0.00  0.00     0.047 C 
ATOM     15  N4   11 d         -14.643 207.151 116.805  0.00  0.00    -0.282 NA
ATOM     16  H    11 d          -9.859 207.352 114.610  0.00  0.00     0.171 HD
ATOM     17  H    11 d         -15.479 206.811 116.207  0.00  0.00     0.188 HD
ENDROOT
BRANCH   3  18
ATOM     18  N3   11 d         -12.444 208.068 118.261  0.00  0.00    -0.237 NA
ATOM     19  H    11 d         -11.521 207.825 118.850  0.00  0.00     0.143 HD
ATOM     20  H    11 d         -12.640 209.169 118.312  0.00  0.00     0.143 HD
ENDBRANCH   3  18
TORSDOF 1
ENDMDL
MODEL 5
REMARK VINA RESULT:      -7.6      2.727      3.725
REMARK  1 active torsions:
REMARK  status: ('A' for Active; 'I' for Inactive)
REMARK    1  A    between atoms: N1_3  and  N3_15 
ROOT
ATOM      1  C1   11 d         -12.921 207.037 115.301  0.00  0.00     0.052 A 
ATOM      2  C2   11 d         -11.960 207.746 116.128  0.00  0.00     0.155 A 
ATOM      3  N1   11 d         -12.276 207.794 117.512  0.00  0.00    -0.211 N 
ATOM      4  C3   11 d         -13.459 207.244 118.059  0.00  0.00     0.343 A 
ATOM      5  O1   11 d         -13.658 207.310 119.253  0.00  0.00    -0.245 OA
ATOM      6  N2   11 d         -14.344 206.649 117.195  0.00  0.00    -0.300 N 
ATOM      7  C4   11 d         -14.048 206.547 115.879  0.00  0.00     0.093 A 
ATOM      8  S1   11 d         -15.116 205.768 114.847  0.00  0.00    -0.075 SA
ATOM      9  C5   11 d         -14.076 206.070 113.524  0.00  0.00    -0.008 A 
ATOM     10  C6   11 d         -12.923 206.750 113.895  0.00  0.00    -0.028 A 
ATOM     11  C7   11 d         -11.874 207.133 112.891  0.00  0.00     0.041 C 
ATOM     12  C8   11 d         -12.041 206.370 111.567  0.00  0.00     0.005 C 
ATOM     13  C9   11 d         -13.508 206.328 111.113  0.00  0.00     0.005 C 
ATOM     14  C10  11 d         -14.400 205.609 112.138  0.00  0.00     0.047 C 
ATOM     15  N4   11 d         -10.853 208.310 115.589  0.00  0.00    -0.282 NA
ATOM     16  H    11 d         -15.284 206.261 117.567  0.00  0.00     0.171 HD
ATOM     17  H    11 d         -10.672 208.236 114.525  0.00  0.00     0.188 HD
ENDROOT
BRANCH   3  18
ATOM     18  N3   11 d         -11.369 208.409 118.333  0.00  0.00    -0.237 NA
ATOM     19  H    11 d         -11.279 209.488 118.045  0.00  0.00     0.143 HD
ATOM     20  H    11 d         -11.715 208.332 119.395  0.00  0.00     0.143 HD
ENDBRANCH   3  18
TORSDOF 1
ENDMDL
MODEL 6
REMARK VINA RESULT:      -7.5      3.050      4.005
REMARK  1 active torsions:
REMARK  status: ('A' for Active; 'I' for Inactive)
REMARK    1  A    between atoms: N1_3  and  N3_15 
ROOT
ATOM      1  C1   11 d         -13.762 206.115 113.757  0.00  0.00     0.052 A 
ATOM      2  C2   11 d         -12.585 206.015 114.603  0.00  0.00     0.155 A 
ATOM      3  N1   11 d         -12.834 205.582 115.932  0.00  0.00    -0.211 N 
ATOM      4  C3   11 d         -14.129 205.313 116.432  0.00  0.00     0.343 A 
ATOM      5  O1   11 d         -14.267 204.933 117.575  0.00  0.00    -0.245 OA
ATOM      6  N2   11 d         -15.192 205.497 115.582  0.00  0.00    -0.300 N 
ATOM      7  C4   11 d         -14.982 205.862 114.298  0.00  0.00     0.093 A 
ATOM      8  S1   11 d         -16.287 206.028 113.259  0.00  0.00    -0.075 SA
ATOM      9  C5   11 d         -15.234 206.471 111.987  0.00  0.00    -0.008 A 
ATOM     10  C6   11 d         -13.901 206.471 112.373  0.00  0.00    -0.028 A 
ATOM     11  C7   11 d         -12.801 206.842 111.419  0.00  0.00     0.041 C 
ATOM     12  C8   11 d         -13.280 206.825 109.959  0.00  0.00     0.005 C 
ATOM     13  C9   11 d         -14.648 207.503 109.798  0.00  0.00     0.005 C 
ATOM     14  C10  11 d         -15.736 206.787 110.613  0.00  0.00     0.047 C 
ATOM     15  N4   11 d         -11.354 206.320 114.129  0.00  0.00    -0.282 NA
ATOM     16  H    11 d         -16.203 205.349 115.942  0.00  0.00     0.171 HD
ATOM     17  H    11 d         -11.233 206.644 113.104  0.00  0.00     0.188 HD
ENDROOT
BRANCH   3  18
ATOM     18  N3   11 d         -11.745 205.426 116.746  0.00  0.00    -0.237 NA
ATOM     19  H    11 d         -10.903 206.063 116.369  0.00  0.00     0.143 HD
ATOM     20  H    11 d         -12.010 205.736 117.788  0.00  0.00     0.143 HD
ENDBRANCH   3  18
TORSDOF 1
ENDMDL
MODEL 7
REMARK VINA RESULT:      -7.3      1.740      2.491
REMARK  1 active torsions:
REMARK  status: ('A' for Active; 'I' for Inactive)
REMARK    1  A    between atoms: N1_3  and  N3_15 
ROOT
ATOM      1  C1   11 d         -11.075 208.075 114.132  0.00  0.00     0.052 A 
ATOM      2  C2   11 d         -10.118 208.874 114.879  0.00  0.00     0.155 A 
ATOM      3  N1   11 d          -8.978 209.291 114.143  0.00  0.00    -0.211 N 
ATOM      4  C3   11 d          -8.745 208.925 112.797  0.00  0.00     0.343 A 
ATOM      5  O1   11 d          -7.755 209.329 112.226  0.00  0.00    -0.245 OA
ATOM      6  N2   11 d          -9.669 208.113 112.188  0.00  0.00    -0.300 N 
ATOM      7  C4   11 d         -10.789 207.739 112.848  0.00  0.00     0.093 A 
ATOM      8  S1   11 d         -11.934 206.793 112.070  0.00  0.00    -0.075 SA
ATOM      9  C5   11 d         -12.903 206.787 113.479  0.00  0.00    -0.008 A 
ATOM     10  C6   11 d         -12.341 207.519 114.517  0.00  0.00    -0.028 A 
ATOM     11  C7   11 d         -13.015 207.639 115.854  0.00  0.00     0.041 C 
ATOM     12  C8   11 d         -14.491 207.214 115.793  0.00  0.00     0.005 C 
ATOM     13  C9   11 d         -14.680 205.918 114.991  0.00  0.00     0.005 C 
ATOM     14  C10  11 d         -14.220 206.079 113.534  0.00  0.00     0.047 C 
ATOM     15  N4   11 d         -10.327 209.181 116.182  0.00  0.00    -0.282 NA
ATOM     16  H    11 d          -9.502 207.770 111.174  0.00  0.00     0.171 HD
ATOM     17  H    11 d         -11.219 208.831 116.684  0.00  0.00     0.188 HD
ENDROOT
BRANCH   3  18
ATOM     18  N3   11 d          -8.077 210.088 114.797  0.00  0.00    -0.237 NA
ATOM     19  H    11 d          -7.555 209.489 115.587  0.00  0.00     0.143 HD
ATOM     20  H    11 d          -7.325 210.479 114.066  0.00  0.00     0.143 HD
ENDBRANCH   3  18
TORSDOF 1
ENDMDL
MODEL 8
REMARK VINA RESULT:      -7.3      2.805      4.739
REMARK  1 active torsions:
REMARK  status: ('A' for Active; 'I' for Inactive)
REMARK    1  A    between atoms: N1_3  and  N3_15 
ROOT
ATOM      1  C1   11 d         -12.078 207.630 114.536  0.00  0.00     0.052 A 
ATOM      2  C2   11 d         -12.722 207.659 115.838  0.00  0.00     0.155 A 
ATOM      3  N1   11 d         -13.936 206.927 115.927  0.00  0.00    -0.211 N 
ATOM      4  C3   11 d         -14.519 206.255 114.827  0.00  0.00     0.343 A 
ATOM      5  O1   11 d         -15.551 205.637 114.978  0.00  0.00    -0.245 OA
ATOM      6  N2   11 d         -13.877 206.334 113.617  0.00  0.00    -0.300 N 
ATOM      7  C4   11 d         -12.695 206.984 113.513  0.00  0.00     0.093 A 
ATOM      8  S1   11 d         -11.897 207.024 112.040  0.00  0.00    -0.075 SA
ATOM      9  C5   11 d         -10.639 207.952 112.733  0.00  0.00    -0.008 A 
ATOM     10  C6   11 d         -10.843 208.204 114.083  0.00  0.00    -0.028 A 
ATOM     11  C7   11 d          -9.870 209.013 114.892  0.00  0.00     0.041 C 
ATOM     12  C8   11 d          -8.518 209.166 114.177  0.00  0.00     0.005 C 
ATOM     13  C9   11 d          -8.692 209.504 112.689  0.00  0.00     0.005 C 
ATOM     14  C10  11 d          -9.451 208.397 111.940  0.00  0.00     0.047 C 
ATOM     15  N4   11 d         -12.180 208.344 116.873  0.00  0.00    -0.282 NA
ATOM     16  H    11 d         -14.318 205.875 112.740  0.00  0.00     0.171 HD
ATOM     17  H    11 d         -11.251 208.882 116.739  0.00  0.00     0.188 HD
ENDROOT
BRANCH   3  18
ATOM     18  N3   11 d         -14.547 206.887 117.150  0.00  0.00    -0.237 NA
ATOM     19  H    11 d         -15.390 206.150 117.122  0.00  0.00     0.143 HD
ATOM     20  H    11 d         -13.804 206.576 117.928  0.00  0.00     0.143 HD
ENDBRANCH   3  18
TORSDOF 1
ENDMDL
MODEL 9
REMARK VINA RESULT:      -7.2      3.265      5.439
REMARK  1 active torsions:
REMARK  status: ('A' for Active; 'I' for Inactive)
REMARK    1  A    between atoms: N1_3  and  N3_15 
ROOT
ATOM      1  C1   11 d         -12.775 207.055 113.111  0.00  0.00     0.052 A 
ATOM      2  C2   11 d         -13.674 206.459 112.137  0.00  0.00     0.155 A 
ATOM      3  N1   11 d         -14.909 205.995 112.662  0.00  0.00    -0.211 N 
ATOM      4  C3   11 d         -15.239 206.051 114.036  0.00  0.00     0.343 A 
ATOM      5  O1   11 d         -16.318 205.647 114.412  0.00  0.00    -0.245 OA
ATOM      6  N2   11 d         -14.304 206.570 114.896  0.00  0.00    -0.300 N 
ATOM      7  C4   11 d         -13.139 207.063 114.420  0.00  0.00     0.093 A 
ATOM      8  S1   11 d         -12.031 207.744 115.478  0.00  0.00    -0.075 SA
ATOM      9  C5   11 d         -10.969 208.067 114.178  0.00  0.00    -0.008 A 
ATOM     10  C6   11 d         -11.483 207.661 112.955  0.00  0.00    -0.028 A 
ATOM     11  C7   11 d         -10.713 207.834 111.676  0.00  0.00     0.041 C 
ATOM     12  C8   11 d          -9.543 208.817 111.841  0.00  0.00     0.005 C 
ATOM     13  C9   11 d          -8.761 208.563 113.138  0.00  0.00     0.005 C 
ATOM     14  C10  11 d          -9.648 208.741 114.380  0.00  0.00     0.047 C 
ATOM     15  N4   11 d         -13.329 206.368 110.830  0.00  0.00    -0.282 NA
ATOM     16  H    11 d         -14.499 206.584 115.961  0.00  0.00     0.171 HD
ATOM     17  H    11 d         -12.371 206.742 110.496  0.00  0.00     0.188 HD
ENDROOT
BRANCH   3  18
ATOM     18  N3   11 d         -15.804 205.473 111.767  0.00  0.00    -0.237 NA
ATOM     19  H    11 d         -16.816 205.916 111.952  0.00  0.00     0.143 HD
ATOM     20  H    11 d         -15.474 205.715 110.725  0.00  0.00     0.143 HD
ENDBRANCH   3  18
TORSDOF 1
ENDMDL
MODEL 10
REMARK VINA RESULT:      -7.2      2.474      3.354
REMARK  1 active torsions:
REMARK  status: ('A' for Active; 'I' for Inactive)
REMARK    1  A    between atoms: N1_3  and  N3_15 
ROOT
ATOM      1  C1   11 d         -11.509 207.620 115.364  0.00  0.00     0.052 A 
ATOM      2  C2   11 d         -12.252 207.185 116.534  0.00  0.00     0.155 A 
ATOM      3  N1   11 d         -11.744 207.646 117.777  0.00  0.00    -0.211 N 
ATOM      4  C3   11 d         -10.572 208.430 117.894  0.00  0.00     0.343 A 
ATOM      5  O1   11 d         -10.202 208.800 118.988  0.00  0.00    -0.245 OA
ATOM      6  N2   11 d          -9.894 208.741 116.741  0.00  0.00    -0.300 N 
ATOM      7  C4   11 d         -10.381 208.356 115.540  0.00  0.00     0.093 A 
ATOM      8  S1   11 d          -9.571 208.792 114.138  0.00  0.00    -0.075 SA
ATOM      9  C5   11 d         -10.740 207.976 113.194  0.00  0.00    -0.008 A 
ATOM     10  C6   11 d         -11.738 207.396 113.965  0.00  0.00    -0.028 A 
ATOM     11  C7   11 d         -12.863 206.616 113.345  0.00  0.00     0.041 C 
ATOM     12  C8   11 d         -12.975 206.876 111.834  0.00  0.00     0.005 C 
ATOM     13  C9   11 d         -11.603 206.853 111.146  0.00  0.00     0.005 C 
ATOM     14  C10  11 d         -10.671 207.942 111.700  0.00  0.00     0.047 C 
ATOM     15  N4   11 d         -13.347 206.396 116.415  0.00  0.00    -0.282 NA
ATOM     16  H    11 d          -8.966 209.296 116.794  0.00  0.00     0.171 HD
ATOM     17  H    11 d         -13.682 206.079 115.436  0.00  0.00     0.188 HD
ENDROOT
BRANCH   3  18
ATOM     18  N3   11 d         -12.445 207.299 118.900  0.00  0.00    -0.237 NA
ATOM     19  H    11 d         -12.422 208.149 119.631  0.00  0.00     0.143 HD
ATOM     20  H    11 d         -13.506 207.074 118.622  0.00  0.00     0.143 HD
ENDBRANCH   3  18
TORSDOF 1
ENDMDL
