MODEL 1
REMARK VINA RESULT:      -9.3      0.000      0.000
REMARK  4 active torsions:
REMARK  status: ('A' for Active; 'I' for Inactive)
REMARK    1  A    between atoms: N1_6  and  O1_7 
REMARK    2  A    between atoms: O1_7  and  C6_8 
REMARK    3  A    between atoms: C7_9  and  N2_10 
REMARK    4  A    between atoms: C9_14  and  N3_15 
ROOT
ATOM      1  C1   11 d          -9.543 208.610 114.914  0.00  0.00     0.287 A 
ATOM      2  C2   11 d         -10.680 207.779 114.390  0.00  0.00     0.063 A 
ATOM      3  C3   11 d         -10.872 207.704 112.978  0.00  0.00     0.007 A 
ATOM      4  C4   11 d         -10.015 208.386 112.073  0.00  0.00     0.046 A 
ATOM      5  C5   11 d          -8.882 209.195 112.592  0.00  0.00     0.286 A 
ATOM      6  N1   11 d          -8.681 209.287 113.995  0.00  0.00    -0.139 N 
ATOM      7  O6   11 d          -8.094 209.806 111.784  0.00  0.00    -0.265 OA
ATOM      8  C12  11 d         -10.242 208.296 110.683  0.00  0.00     0.018 A 
ATOM      9  C13  11 d         -11.306 207.539 110.184  0.00  0.00     0.002 A 
ATOM     10  C14  11 d         -12.154 206.857 111.060  0.00  0.00     0.012 A 
ATOM     11  C15  11 d         -11.947 206.932 112.450  0.00  0.00    -0.024 A 
ATOM     12  C16  11 d         -12.806 206.240 113.317  0.00  0.00     0.013 A 
ATOM     13  C17  11 d         -12.611 206.305 114.697  0.00  0.00     0.020 A 
ATOM     14  C18  11 d         -11.564 207.061 115.243  0.00  0.00     0.023 A 
ATOM     15  I1   11 d         -11.486 206.985 117.333  0.00  0.00    -0.043 I 
ATOM     16  O7   11 d          -9.324 208.720 116.171  0.00  0.00    -0.265 OA
ENDROOT
BRANCH   6  17
ATOM     17  O1   11 d          -7.627 210.055 114.442  0.00  0.00    -0.222 OA
BRANCH  17  18
ATOM     18  C6   11 d          -6.380 209.350 114.433  0.00  0.00     0.132 A 
ATOM     19  C7   11 d          -5.660 209.207 115.647  0.00  0.00     0.141 A 
ATOM     20  C8   11 d          -4.469 208.446 115.653  0.00  0.00     0.075 A 
ATOM     21  C9   11 d          -3.981 207.817 114.483  0.00  0.00     0.105 A 
ATOM     22  C10  11 d          -4.714 207.976 113.289  0.00  0.00     0.039 A 
ATOM     23  C11  11 d          -5.892 208.732 113.263  0.00  0.00     0.044 A 
BRANCH  19  24
ATOM     24  N2   11 d          -6.103 209.818 116.819  0.00  0.00    -0.113 N 
ATOM     25  O2   11 d          -5.743 210.876 117.069  0.00  0.00    -0.532 OA
ATOM     26  O3   11 d          -6.543 209.110 117.768  0.00  0.00    -0.532 OA
ENDBRANCH  19  24
BRANCH  21  27
ATOM     27  N3   11 d          -2.803 207.065 114.498  0.00  0.00    -0.116 N 
ATOM     28  O4   11 d          -2.780 206.024 114.975  0.00  0.00    -0.532 OA
ATOM     29  O5   11 d          -1.774 207.460 113.883  0.00  0.00    -0.532 OA
ENDBRANCH  21  27
ENDBRANCH  17  18
ENDBRANCH   6  17
TORSDOF 4
ENDMDL
MODEL 2
REMARK VINA RESULT:      -9.1      4.573      7.734
REMARK  4 active torsions:
REMARK  status: ('A' for Active; 'I' for Inactive)
REMARK    1  A    between atoms: N1_6  and  O1_7 
REMARK    2  A    between atoms: O1_7  and  C6_8 
REMARK    3  A    between atoms: C7_9  and  N2_10 
REMARK    4  A    between atoms: C9_14  and  N3_15 
ROOT
ATOM      1  C1   11 d         -13.301 207.686 113.561  0.00  0.00     0.287 A 
ATOM      2  C2   11 d         -12.308 207.683 112.433  0.00  0.00     0.063 A 
ATOM      3  C3   11 d         -10.952 208.021 112.721  0.00  0.00     0.007 A 
ATOM      4  C4   11 d         -10.530 208.350 114.038  0.00  0.00     0.046 A 
ATOM      5  C5   11 d         -11.509 208.338 115.154  0.00  0.00     0.286 A 
ATOM      6  N1   11 d         -12.866 208.012 114.884  0.00  0.00    -0.139 N 
ATOM      7  O6   11 d         -11.138 208.621 116.350  0.00  0.00    -0.265 OA
ATOM      8  C12  11 d          -9.182 208.688 114.282  0.00  0.00     0.018 A 
ATOM      9  C13  11 d          -8.252 208.704 113.239  0.00  0.00     0.002 A 
ATOM     10  C14  11 d          -8.650 208.378 111.940  0.00  0.00     0.012 A 
ATOM     11  C15  11 d          -9.988 208.037 111.672  0.00  0.00    -0.024 A 
ATOM     12  C16  11 d         -10.371 207.709 110.363  0.00  0.00     0.013 A 
ATOM     13  C17  11 d         -11.695 207.368 110.083  0.00  0.00     0.020 A 
ATOM     14  C18  11 d         -12.664 207.349 111.097  0.00  0.00     0.023 A 
ATOM     15  I1   11 d         -14.565 206.798 110.418  0.00  0.00    -0.043 I 
ATOM     16  O7   11 d         -14.533 207.398 113.363  0.00  0.00    -0.265 OA
ENDROOT
BRANCH   6  17
ATOM     17  O1   11 d         -13.749 208.021 115.942  0.00  0.00    -0.222 OA
BRANCH  17  18
ATOM     18  C6   11 d         -14.061 206.707 116.419  0.00  0.00     0.132 A 
ATOM     19  C7   11 d         -13.790 206.381 117.773  0.00  0.00     0.141 A 
ATOM     20  C8   11 d         -14.167 205.111 118.264  0.00  0.00     0.075 A 
ATOM     21  C9   11 d         -14.815 204.158 117.442  0.00  0.00     0.105 A 
ATOM     22  C10  11 d         -15.071 204.504 116.099  0.00  0.00     0.039 A 
ATOM     23  C11  11 d         -14.698 205.756 115.595  0.00  0.00     0.044 A 
BRANCH  19  24
ATOM     24  N2   11 d         -13.146 207.290 118.613  0.00  0.00    -0.113 N 
ATOM     25  O2   11 d         -12.065 207.086 118.933  0.00  0.00    -0.532 OA
ATOM     26  O3   11 d         -13.829 208.078 119.325  0.00  0.00    -0.532 OA
ENDBRANCH  19  24
BRANCH  21  27
ATOM     27  N3   11 d         -15.186 202.904 117.935  0.00  0.00    -0.116 N 
ATOM     28  O4   11 d         -15.254 202.716 119.063  0.00  0.00    -0.532 OA
ATOM     29  O5   11 d         -15.570 201.989 117.155  0.00  0.00    -0.532 OA
ENDBRANCH  21  27
ENDBRANCH  17  18
ENDBRANCH   6  17
TORSDOF 4
ENDMDL
MODEL 3
REMARK VINA RESULT:      -9.1      4.463      6.202
REMARK  4 active torsions:
REMARK  status: ('A' for Active; 'I' for Inactive)
REMARK    1  A    between atoms: N1_6  and  O1_7 
REMARK    2  A    between atoms: O1_7  and  C6_8 
REMARK    3  A    between atoms: C7_9  and  N2_10 
REMARK    4  A    between atoms: C9_14  and  N3_15 
ROOT
ATOM      1  C1   11 d         -11.840 208.145 114.830  0.00  0.00     0.287 A 
ATOM      2  C2   11 d         -11.735 207.725 113.391  0.00  0.00     0.063 A 
ATOM      3  C3   11 d         -12.775 206.916 112.842  0.00  0.00     0.007 A 
ATOM      4  C4   11 d         -13.893 206.512 113.621  0.00  0.00     0.046 A 
ATOM      5  C5   11 d         -14.002 206.940 115.038  0.00  0.00     0.286 A 
ATOM      6  N1   11 d         -12.972 207.739 115.603  0.00  0.00    -0.139 N 
ATOM      7  O6   11 d         -15.013 206.592 115.748  0.00  0.00    -0.265 OA
ATOM      8  C12  11 d         -14.897 205.704 113.046  0.00  0.00     0.018 A 
ATOM      9  C13  11 d         -14.804 205.294 111.713  0.00  0.00     0.002 A 
ATOM     10  C14  11 d         -13.713 205.687 110.932  0.00  0.00     0.012 A 
ATOM     11  C15  11 d         -12.700 206.493 111.484  0.00  0.00    -0.024 A 
ATOM     12  C16  11 d         -11.614 206.882 110.686  0.00  0.00     0.013 A 
ATOM     13  C17  11 d         -10.603 207.682 111.220  0.00  0.00     0.020 A 
ATOM     14  C18  11 d         -10.649 208.108 112.555  0.00  0.00     0.023 A 
ATOM     15  I1   11 d          -9.020 209.302 113.104  0.00  0.00    -0.043 I 
ATOM     16  O7   11 d         -10.935 208.866 115.379  0.00  0.00    -0.265 OA
ENDROOT
BRANCH   6  17
ATOM     17  O1   11 d         -13.101 208.110 116.925  0.00  0.00    -0.222 OA
BRANCH  17  18
ATOM     18  C6   11 d         -12.030 207.630 117.746  0.00  0.00     0.132 A 
ATOM     19  C7   11 d         -12.071 206.296 118.225  0.00  0.00     0.141 A 
ATOM     20  C8   11 d         -10.978 205.799 118.971  0.00  0.00     0.075 A 
ATOM     21  C9   11 d          -9.841 206.596 119.245  0.00  0.00     0.105 A 
ATOM     22  C10  11 d          -9.825 207.920 118.760  0.00  0.00     0.039 A 
ATOM     23  C11  11 d         -10.903 208.430 118.026  0.00  0.00     0.044 A 
BRANCH  19  24
ATOM     24  N2   11 d         -13.177 205.482 117.982  0.00  0.00    -0.113 N 
ATOM     25  O2   11 d         -14.044 205.479 118.730  0.00  0.00    -0.532 OA
ATOM     26  O3   11 d         -13.067 204.489 117.210  0.00  0.00    -0.532 OA
ENDBRANCH  19  24
BRANCH  21  27
ATOM     27  N3   11 d          -8.763 206.098 119.983  0.00  0.00    -0.116 N 
ATOM     28  O4   11 d          -7.799 206.707 120.093  0.00  0.00    -0.532 OA
ATOM     29  O5   11 d          -8.869 205.027 120.642  0.00  0.00    -0.532 OA
ENDBRANCH  21  27
ENDBRANCH  17  18
ENDBRANCH   6  17
TORSDOF 4
ENDMDL
MODEL 4
REMARK VINA RESULT:      -9.0      1.790      2.396
REMARK  4 active torsions:
REMARK  status: ('A' for Active; 'I' for Inactive)
REMARK    1  A    between atoms: N1_6  and  O1_7 
REMARK    2  A    between atoms: O1_7  and  C6_8 
REMARK    3  A    between atoms: C7_9  and  N2_10 
REMARK    4  A    between atoms: C9_14  and  N3_15 
ROOT
ATOM      1  C1   11 d         -10.175 208.506 115.050  0.00  0.00     0.287 A 
ATOM      2  C2   11 d         -11.300 207.816 114.332  0.00  0.00     0.063 A 
ATOM      3  C3   11 d         -11.242 207.723 112.909  0.00  0.00     0.007 A 
ATOM      4  C4   11 d         -10.151 208.259 112.172  0.00  0.00     0.046 A 
ATOM      5  C5   11 d          -9.033 208.927 112.885  0.00  0.00     0.286 A 
ATOM      6  N1   11 d          -9.078 209.036 114.301  0.00  0.00    -0.139 N 
ATOM      7  O6   11 d          -8.037 209.404 112.231  0.00  0.00    -0.265 OA
ATOM      8  C12  11 d         -10.133 208.156 110.765  0.00  0.00     0.018 A 
ATOM      9  C13  11 d         -11.182 207.530 110.084  0.00  0.00     0.002 A 
ATOM     10  C14  11 d         -12.258 206.993 110.794  0.00  0.00     0.012 A 
ATOM     11  C15  11 d         -12.298 207.084 112.198  0.00  0.00    -0.024 A 
ATOM     12  C16  11 d         -13.385 206.537 112.897  0.00  0.00     0.013 A 
ATOM     13  C17  11 d         -13.436 206.619 114.289  0.00  0.00     0.020 A 
ATOM     14  C18  11 d         -12.412 207.247 115.013  0.00  0.00     0.023 A 
ATOM     15  I1   11 d         -12.725 207.226 117.082  0.00  0.00    -0.043 I 
ATOM     16  O7   11 d         -10.175 208.626 116.325  0.00  0.00    -0.265 OA
ENDROOT
BRANCH   6  17
ATOM     17  O1   11 d          -8.028 209.672 114.928  0.00  0.00    -0.222 OA
BRANCH  17  18
ATOM     18  C6   11 d          -7.162 208.766 115.621  0.00  0.00     0.132 A 
ATOM     19  C7   11 d          -5.903 208.444 115.053  0.00  0.00     0.141 A 
ATOM     20  C8   11 d          -5.016 207.611 115.772  0.00  0.00     0.075 A 
ATOM     21  C9   11 d          -5.349 207.095 117.047  0.00  0.00     0.105 A 
ATOM     22  C10  11 d          -6.608 207.427 117.589  0.00  0.00     0.039 A 
ATOM     23  C11  11 d          -7.501 208.246 116.887  0.00  0.00     0.044 A 
BRANCH  19  24
ATOM     24  N2   11 d          -5.540 208.926 113.795  0.00  0.00    -0.113 N 
ATOM     25  O2   11 d          -5.313 208.182 112.956  0.00  0.00    -0.532 OA
ATOM     26  O3   11 d          -5.079 210.096 113.681  0.00  0.00    -0.532 OA
ENDBRANCH  19  24
BRANCH  21  27
ATOM     27  N3   11 d          -4.467 206.272 117.753  0.00  0.00    -0.116 N 
ATOM     28  O4   11 d          -3.949 205.392 117.235  0.00  0.00    -0.532 OA
ATOM     29  O5   11 d          -4.129 206.550 118.937  0.00  0.00    -0.532 OA
ENDBRANCH  21  27
ENDBRANCH  17  18
ENDBRANCH   6  17
TORSDOF 4
ENDMDL
MODEL 5
REMARK VINA RESULT:      -8.9      2.420      2.995
REMARK  4 active torsions:
REMARK  status: ('A' for Active; 'I' for Inactive)
REMARK    1  A    between atoms: N1_6  and  O1_7 
REMARK    2  A    between atoms: O1_7  and  C6_8 
REMARK    3  A    between atoms: C7_9  and  N2_10 
REMARK    4  A    between atoms: C9_14  and  N3_15 
ROOT
ATOM      1  C1   11 d         -11.288 207.758 115.439  0.00  0.00     0.287 A 
ATOM      2  C2   11 d         -11.946 207.155 114.230  0.00  0.00     0.063 A 
ATOM      3  C3   11 d         -11.415 207.465 112.943  0.00  0.00     0.007 A 
ATOM      4  C4   11 d         -10.288 208.318 112.788  0.00  0.00     0.046 A 
ATOM      5  C5   11 d          -9.631 208.902 113.985  0.00  0.00     0.286 A 
ATOM      6  N1   11 d         -10.151 208.609 115.274  0.00  0.00    -0.139 N 
ATOM      7  O6   11 d          -8.606 209.664 113.858  0.00  0.00    -0.265 OA
ATOM      8  C12  11 d          -9.797 208.610 111.498  0.00  0.00     0.018 A 
ATOM      9  C13  11 d         -10.409 208.067 110.364  0.00  0.00     0.002 A 
ATOM     10  C14  11 d         -11.514 207.223 110.499  0.00  0.00     0.012 A 
ATOM     11  C15  11 d         -12.021 206.917 111.776  0.00  0.00    -0.024 A 
ATOM     12  C16  11 d         -13.129 206.065 111.895  0.00  0.00     0.013 A 
ATOM     13  C17  11 d         -13.641 205.753 113.155  0.00  0.00     0.020 A 
ATOM     14  C18  11 d         -13.067 206.283 114.320  0.00  0.00     0.023 A 
ATOM     15  I1   11 d         -14.015 205.653 116.075  0.00  0.00    -0.043 I 
ATOM     16  O7   11 d         -11.724 207.521 116.620  0.00  0.00    -0.265 OA
ENDROOT
BRANCH   6  17
ATOM     17  O1   11 d          -9.522 209.177 116.362  0.00  0.00    -0.222 OA
BRANCH  17  18
ATOM     18  C6   11 d          -8.357 208.453 116.772  0.00  0.00     0.132 A 
ATOM     19  C7   11 d          -8.414 207.662 117.948  0.00  0.00     0.141 A 
ATOM     20  C8   11 d          -7.288 206.888 118.311  0.00  0.00     0.075 A 
ATOM     21  C9   11 d          -6.109 206.876 117.529  0.00  0.00     0.105 A 
ATOM     22  C10  11 d          -6.077 207.673 116.366  0.00  0.00     0.039 A 
ATOM     23  C11  11 d          -7.180 208.451 115.995  0.00  0.00     0.044 A 
BRANCH  19  24
ATOM     24  N2   11 d          -9.554 207.653 118.751  0.00  0.00    -0.113 N 
ATOM     25  O2   11 d          -9.784 208.564 119.406  0.00  0.00    -0.532 OA
ATOM     26  O3   11 d         -10.089 206.554 119.068  0.00  0.00    -0.532 OA
ENDBRANCH  19  24
BRANCH  21  27
ATOM     27  N3   11 d          -5.000 206.107 117.894  0.00  0.00    -0.116 N 
ATOM     28  O4   11 d          -4.853 205.055 117.466  0.00  0.00    -0.532 OA
ATOM     29  O5   11 d          -4.078 206.597 118.602  0.00  0.00    -0.532 OA
ENDBRANCH  21  27
ENDBRANCH  17  18
ENDBRANCH   6  17
TORSDOF 4
ENDMDL
MODEL 6
REMARK VINA RESULT:      -8.6      2.714      3.789
REMARK  4 active torsions:
REMARK  status: ('A' for Active; 'I' for Inactive)
REMARK    1  A    between atoms: N1_6  and  O1_7 
REMARK    2  A    between atoms: O1_7  and  C6_8 
REMARK    3  A    between atoms: C7_9  and  N2_10 
REMARK    4  A    between atoms: C9_14  and  N3_15 
ROOT
ATOM      1  C1   11 d         -11.244 207.716 115.710  0.00  0.00     0.287 A 
ATOM      2  C2   11 d         -11.893 207.144 114.482  0.00  0.00     0.063 A 
ATOM      3  C3   11 d         -11.337 207.465 113.208  0.00  0.00     0.007 A 
ATOM      4  C4   11 d         -10.192 208.299 113.084  0.00  0.00     0.046 A 
ATOM      5  C5   11 d          -9.543 208.851 114.300  0.00  0.00     0.286 A 
ATOM      6  N1   11 d         -10.089 208.548 115.576  0.00  0.00    -0.139 N 
ATOM      7  O6   11 d          -8.502 209.595 114.202  0.00  0.00    -0.265 OA
ATOM      8  C12  11 d          -9.676 208.602 111.806  0.00  0.00     0.018 A 
ATOM      9  C13  11 d         -10.280 208.089 110.654  0.00  0.00     0.002 A 
ATOM     10  C14  11 d         -11.402 207.263 110.759  0.00  0.00     0.012 A 
ATOM     11  C15  11 d         -11.935 206.947 112.022  0.00  0.00    -0.024 A 
ATOM     12  C16  11 d         -13.060 206.114 112.111  0.00  0.00     0.013 A 
ATOM     13  C17  11 d         -13.598 205.792 113.358  0.00  0.00     0.020 A 
ATOM     14  C18  11 d         -13.031 206.292 114.539  0.00  0.00     0.023 A 
ATOM     15  I1   11 d         -14.019 205.653 116.270  0.00  0.00    -0.043 I 
ATOM     16  O7   11 d         -11.702 207.468 116.880  0.00  0.00    -0.265 OA
ENDROOT
BRANCH   6  17
ATOM     17  O1   11 d          -9.467 209.086 116.683  0.00  0.00    -0.222 OA
BRANCH  17  18
ATOM     18  C6   11 d          -8.829 208.097 117.500  0.00  0.00     0.132 A 
ATOM     19  C7   11 d          -7.436 207.875 117.353  0.00  0.00     0.141 A 
ATOM     20  C8   11 d          -6.793 206.954 118.212  0.00  0.00     0.075 A 
ATOM     21  C9   11 d          -7.501 206.254 119.217  0.00  0.00     0.105 A 
ATOM     22  C10  11 d          -8.886 206.490 119.340  0.00  0.00     0.039 A 
ATOM     23  C11  11 d          -9.540 207.394 118.494  0.00  0.00     0.044 A 
BRANCH  19  24
ATOM     24  N2   11 d          -6.704 208.539 116.370  0.00  0.00    -0.113 N 
ATOM     25  O2   11 d          -6.217 207.932 115.530  0.00  0.00    -0.532 OA
ATOM     26  O3   11 d          -6.243 209.692 116.602  0.00  0.00    -0.532 OA
ENDBRANCH  19  24
BRANCH  21  27
ATOM     27  N3   11 d          -6.859 205.345 120.063  0.00  0.00    -0.116 N 
ATOM     28  O4   11 d          -7.147 204.237 120.056  0.00  0.00    -0.532 OA
ATOM     29  O5   11 d          -5.868 205.698 120.761  0.00  0.00    -0.532 OA
ENDBRANCH  21  27
ENDBRANCH  17  18
ENDBRANCH   6  17
TORSDOF 4
ENDMDL
MODEL 7
REMARK VINA RESULT:      -8.5      6.615     10.118
REMARK  4 active torsions:
REMARK  status: ('A' for Active; 'I' for Inactive)
REMARK    1  A    between atoms: N1_6  and  O1_7 
REMARK    2  A    between atoms: O1_7  and  C6_8 
REMARK    3  A    between atoms: C7_9  and  N2_10 
REMARK    4  A    between atoms: C9_14  and  N3_15 
ROOT
ATOM      1  C1   11 d         -12.387 205.716 117.830  0.00  0.00     0.287 A 
ATOM      2  C2   11 d         -11.944 206.695 116.781  0.00  0.00     0.063 A 
ATOM      3  C3   11 d         -12.710 206.800 115.582  0.00  0.00     0.007 A 
ATOM      4  C4   11 d         -13.872 206.008 115.370  0.00  0.00     0.046 A 
ATOM      5  C5   11 d         -14.317 205.052 116.415  0.00  0.00     0.286 A 
ATOM      6  N1   11 d         -13.561 204.929 117.612  0.00  0.00    -0.139 N 
ATOM      7  O6   11 d         -15.371 204.340 116.240  0.00  0.00    -0.265 OA
ATOM      8  C12  11 d         -14.600 206.132 114.168  0.00  0.00     0.018 A 
ATOM      9  C13  11 d         -14.189 207.029 113.176  0.00  0.00     0.002 A 
ATOM     10  C14  11 d         -13.052 207.818 113.372  0.00  0.00     0.012 A 
ATOM     11  C15  11 d         -12.311 207.712 114.563  0.00  0.00    -0.024 A 
ATOM     12  C16  11 d         -11.174 208.513 114.745  0.00  0.00     0.013 A 
ATOM     13  C17  11 d         -10.431 208.419 115.922  0.00  0.00     0.020 A 
ATOM     14  C18  11 d         -10.799 207.526 116.939  0.00  0.00     0.023 A 
ATOM     15  I1   11 d          -9.527 207.586 118.599  0.00  0.00    -0.043 I 
ATOM     16  O7   11 d         -11.736 205.574 118.924  0.00  0.00    -0.265 OA
ENDROOT
BRANCH   6  17
ATOM     17  O1   11 d         -13.998 204.024 118.555  0.00  0.00    -0.222 OA
BRANCH  17  18
ATOM     18  C6   11 d         -14.973 204.575 119.448  0.00  0.00     0.132 A 
ATOM     19  C7   11 d         -16.182 203.868 119.670  0.00  0.00     0.141 A 
ATOM     20  C8   11 d         -17.111 204.373 120.609  0.00  0.00     0.075 A 
ATOM     21  C9   11 d         -16.863 205.561 121.336  0.00  0.00     0.105 A 
ATOM     22  C10  11 d         -15.655 206.247 121.094  0.00  0.00     0.039 A 
ATOM     23  C11  11 d         -14.727 205.764 120.164  0.00  0.00     0.044 A 
BRANCH  19  24
ATOM     24  N2   11 d         -16.468 202.697 118.968  0.00  0.00    -0.113 N 
ATOM     25  O2   11 d         -17.255 202.722 118.137  0.00  0.00    -0.532 OA
ATOM     26  O3   11 d         -16.190 201.576 119.478  0.00  0.00    -0.532 OA
ENDBRANCH  19  24
BRANCH  21  27
ATOM     27  N3   11 d         -17.786 206.054 122.262  0.00  0.00    -0.116 N 
ATOM     28  O4   11 d         -18.884 205.730 122.221  0.00  0.00    -0.532 OA
ATOM     29  O5   11 d         -17.411 206.767 123.234  0.00  0.00    -0.532 OA
ENDBRANCH  21  27
ENDBRANCH  17  18
ENDBRANCH   6  17
TORSDOF 4
ENDMDL
MODEL 8
REMARK VINA RESULT:      -8.1      3.309      4.739
REMARK  4 active torsions:
REMARK  status: ('A' for Active; 'I' for Inactive)
REMARK    1  A    between atoms: N1_6  and  O1_7 
REMARK    2  A    between atoms: O1_7  and  C6_8 
REMARK    3  A    between atoms: C7_9  and  N2_10 
REMARK    4  A    between atoms: C9_14  and  N3_15 
ROOT
ATOM      1  C1   11 d         -10.132 208.213 115.646  0.00  0.00     0.287 A 
ATOM      2  C2   11 d         -11.008 207.679 114.549  0.00  0.00     0.063 A 
ATOM      3  C3   11 d         -12.198 206.980 114.910  0.00  0.00     0.007 A 
ATOM      4  C4   11 d         -12.566 206.789 116.270  0.00  0.00     0.046 A 
ATOM      5  C5   11 d         -11.706 207.330 117.353  0.00  0.00     0.286 A 
ATOM      6  N1   11 d         -10.513 208.022 117.011  0.00  0.00    -0.139 N 
ATOM      7  O6   11 d         -12.033 207.174 118.584  0.00  0.00    -0.265 OA
ATOM      8  C12  11 d         -13.746 206.084 116.588  0.00  0.00     0.018 A 
ATOM      9  C13  11 d         -14.562 205.568 115.577  0.00  0.00     0.002 A 
ATOM     10  C14  11 d         -14.218 205.753 114.236  0.00  0.00     0.012 A 
ATOM     11  C15  11 d         -13.046 206.452 113.893  0.00  0.00    -0.024 A 
ATOM     12  C16  11 d         -12.716 206.632 112.542  0.00  0.00     0.013 A 
ATOM     13  C17  11 d         -11.558 207.325 112.189  0.00  0.00     0.020 A 
ATOM     14  C18  11 d         -10.703 207.850 113.169  0.00  0.00     0.023 A 
ATOM     15  I1   11 d          -9.044 208.850 112.378  0.00  0.00    -0.043 I 
ATOM     16  O7   11 d          -9.048 208.843 115.383  0.00  0.00    -0.265 OA
ENDROOT
BRANCH   6  17
ATOM     17  O1   11 d          -9.733 208.502 118.042  0.00  0.00    -0.222 OA
BRANCH  17  18
ATOM     18  C6   11 d          -8.495 207.796 118.179  0.00  0.00     0.132 A 
ATOM     19  C7   11 d          -8.384 206.781 119.163  0.00  0.00     0.141 A 
ATOM     20  C8   11 d          -7.188 206.033 119.248  0.00  0.00     0.075 A 
ATOM     21  C9   11 d          -6.100 206.266 118.373  0.00  0.00     0.105 A 
ATOM     22  C10  11 d          -6.234 207.284 117.406  0.00  0.00     0.039 A 
ATOM     23  C11  11 d          -7.410 208.039 117.312  0.00  0.00     0.044 A 
BRANCH  19  24
ATOM     24  N2   11 d          -9.431 206.525 120.049  0.00  0.00    -0.113 N 
ATOM     25  O2   11 d          -9.546 207.180 120.982  0.00  0.00    -0.532 OA
ATOM     26  O3   11 d          -9.978 205.387 120.062  0.00  0.00    -0.532 OA
ENDBRANCH  19  24
BRANCH  21  27
ATOM     27  N3   11 d          -4.921 205.522 118.462  0.00  0.00    -0.116 N 
ATOM     28  O4   11 d          -4.373 205.181 117.516  0.00  0.00    -0.532 OA
ATOM     29  O5   11 d          -4.369 205.315 119.578  0.00  0.00    -0.532 OA
ENDBRANCH  21  27
ENDBRANCH  17  18
ENDBRANCH   6  17
TORSDOF 4
ENDMDL
MODEL 9
REMARK VINA RESULT:      -8.1      3.364      7.084
REMARK  4 active torsions:
REMARK  status: ('A' for Active; 'I' for Inactive)
REMARK    1  A    between atoms: N1_6  and  O1_7 
REMARK    2  A    between atoms: O1_7  and  C6_8 
REMARK    3  A    between atoms: C7_9  and  N2_10 
REMARK    4  A    between atoms: C9_14  and  N3_15 
ROOT
ATOM      1  C1   11 d          -9.779 208.268 116.672  0.00  0.00     0.287 A 
ATOM      2  C2   11 d          -8.354 207.966 117.039  0.00  0.00     0.063 A 
ATOM      3  C3   11 d          -7.317 208.428 116.174  0.00  0.00     0.007 A 
ATOM      4  C4   11 d          -7.606 209.163 114.992  0.00  0.00     0.046 A 
ATOM      5  C5   11 d          -9.015 209.473 114.639  0.00  0.00     0.286 A 
ATOM      6  N1   11 d         -10.060 209.014 115.485  0.00  0.00    -0.139 N 
ATOM      7  O6   11 d          -9.289 210.146 113.581  0.00  0.00    -0.265 OA
ATOM      8  C12  11 d          -6.556 209.595 114.156  0.00  0.00     0.018 A 
ATOM      9  C13  11 d          -5.226 209.307 114.478  0.00  0.00     0.002 A 
ATOM     10  C14  11 d          -4.924 208.591 115.639  0.00  0.00     0.012 A 
ATOM     11  C15  11 d          -5.956 208.149 116.488  0.00  0.00    -0.024 A 
ATOM     12  C16  11 d          -5.637 207.434 117.652  0.00  0.00     0.013 A 
ATOM     13  C17  11 d          -6.650 206.992 118.504  0.00  0.00     0.020 A 
ATOM     14  C18  11 d          -7.998 207.248 118.215  0.00  0.00     0.023 A 
ATOM     15  I1   11 d          -9.315 206.487 119.653  0.00  0.00    -0.043 I 
ATOM     16  O7   11 d         -10.752 207.874 117.407  0.00  0.00    -0.265 OA
ENDROOT
BRANCH   6  17
ATOM     17  O1   11 d         -11.356 209.311 115.121  0.00  0.00    -0.222 OA
BRANCH  17  18
ATOM     18  C6   11 d         -11.933 208.325 114.256  0.00  0.00     0.132 A 
ATOM     19  C7   11 d         -13.301 207.986 114.412  0.00  0.00     0.141 A 
ATOM     20  C8   11 d         -13.889 207.070 113.510  0.00  0.00     0.075 A 
ATOM     21  C9   11 d         -13.150 206.488 112.452  0.00  0.00     0.105 A 
ATOM     22  C10  11 d         -11.790 206.840 112.321  0.00  0.00     0.039 A 
ATOM     23  C11  11 d         -11.191 207.740 113.209  0.00  0.00     0.044 A 
BRANCH  19  24
ATOM     24  N2   11 d         -14.061 208.531 115.446  0.00  0.00    -0.113 N 
ATOM     25  O2   11 d         -14.548 209.557 115.301  0.00  0.00    -0.532 OA
ATOM     26  O3   11 d         -13.891 208.126 116.630  0.00  0.00    -0.532 OA
ENDBRANCH  19  24
BRANCH  21  27
ATOM     27  N3   11 d         -13.738 205.583 111.564  0.00  0.00    -0.116 N 
ATOM     28  O4   11 d         -14.199 204.607 111.946  0.00  0.00    -0.532 OA
ATOM     29  O5   11 d         -13.884 205.874 110.345  0.00  0.00    -0.532 OA
ENDBRANCH  21  27
ENDBRANCH  17  18
ENDBRANCH   6  17
TORSDOF 4
ENDMDL
MODEL 10
REMARK VINA RESULT:      -7.8      4.029      7.813
REMARK  4 active torsions:
REMARK  status: ('A' for Active; 'I' for Inactive)
REMARK    1  A    between atoms: N1_6  and  O1_7 
REMARK    2  A    between atoms: O1_7  and  C6_8 
REMARK    3  A    between atoms: C7_9  and  N2_10 
REMARK    4  A    between atoms: C9_14  and  N3_15 
ROOT
ATOM      1  C1   11 d          -9.284 208.903 115.588  0.00  0.00     0.287 A 
ATOM      2  C2   11 d          -8.098 208.378 116.346  0.00  0.00     0.063 A 
ATOM      3  C3   11 d          -8.331 207.633 117.540  0.00  0.00     0.007 A 
ATOM      4  C4   11 d          -9.647 207.377 118.014  0.00  0.00     0.046 A 
ATOM      5  C5   11 d         -10.818 207.884 117.255  0.00  0.00     0.286 A 
ATOM      6  N1   11 d         -10.604 208.635 116.068  0.00  0.00    -0.139 N 
ATOM      7  O6   11 d         -12.011 207.650 117.665  0.00  0.00    -0.265 OA
ATOM      8  C12  11 d          -9.837 206.644 119.204  0.00  0.00     0.018 A 
ATOM      9  C13  11 d          -8.742 206.164 119.927  0.00  0.00     0.002 A 
ATOM     10  C14  11 d          -7.442 206.401 119.472  0.00  0.00     0.012 A 
ATOM     11  C15  11 d          -7.227 207.130 118.288  0.00  0.00    -0.024 A 
ATOM     12  C16  11 d          -5.917 207.357 117.843  0.00  0.00     0.013 A 
ATOM     13  C17  11 d          -5.689 208.077 116.669  0.00  0.00     0.020 A 
ATOM     14  C18  11 d          -6.757 208.587 115.917  0.00  0.00     0.023 A 
ATOM     15  I1   11 d          -6.148 209.618 114.201  0.00  0.00    -0.043 I 
ATOM     16  O7   11 d          -9.137 209.584 114.513  0.00  0.00    -0.265 OA
ENDROOT
BRANCH   6  17
ATOM     17  O1   11 d         -11.714 209.099 115.395  0.00  0.00    -0.222 OA
BRANCH  17  18
ATOM     18  C6   11 d         -12.240 208.147 114.463  0.00  0.00     0.132 A 
ATOM     19  C7   11 d         -13.635 207.893 114.449  0.00  0.00     0.141 A 
ATOM     20  C8   11 d         -14.163 207.010 113.479  0.00  0.00     0.075 A 
ATOM     21  C9   11 d         -13.338 206.379 112.518  0.00  0.00     0.105 A 
ATOM     22  C10  11 d         -11.953 206.646 112.556  0.00  0.00     0.039 A 
ATOM     23  C11  11 d         -11.413 207.513 113.513  0.00  0.00     0.044 A 
BRANCH  19  24
ATOM     24  N2   11 d         -14.481 208.488 115.384  0.00  0.00    -0.113 N 
ATOM     25  O2   11 d         -14.765 209.590 115.258  0.00  0.00    -0.532 OA
ATOM     26  O3   11 d         -14.602 207.980 116.534  0.00  0.00    -0.532 OA
ENDBRANCH  19  24
BRANCH  21  27
ATOM     27  N3   11 d         -13.867 205.508 111.562  0.00  0.00    -0.116 N 
ATOM     28  O4   11 d         -13.513 205.551 110.474  0.00  0.00    -0.532 OA
ATOM     29  O5   11 d         -14.653 204.579 111.897  0.00  0.00    -0.532 OA
ENDBRANCH  21  27
ENDBRANCH  17  18
ENDBRANCH   6  17
TORSDOF 4
ENDMDL
