MODEL 1
REMARK VINA RESULT:      -9.6      0.000      0.000
REMARK  7 active torsions:
REMARK  status: ('A' for Active; 'I' for Inactive)
REMARK       I    between atoms: C1_1  and  N1_3 
REMARK    1  A    between atoms: C1_1  and  C13_16 
REMARK    2  A    between atoms: N1_3  and  C2_4 
REMARK    3  A    between atoms: C2_4  and  C3_5 
REMARK    4  A    between atoms: C3_5  and  O2_6 
REMARK    5  A    between atoms: O2_6  and  C4_7 
REMARK    6  A    between atoms: C5_8  and  C10_13 
REMARK    7  A    between atoms: C13_16  and  C14_17 
ROOT
ATOM      1  C1   11 d         -12.391 206.279 116.005  0.00  0.00     0.218 C 
ATOM      2  O1   11 d         -11.498 205.671 116.693  0.00  0.00    -0.274 OA
ATOM      3  N1   11 d         -13.224 207.261 116.612  0.00  0.00    -0.359 N 
ATOM      4  H1   11 d         -13.964 207.763 116.016  0.00  0.00     0.162 HD
ENDROOT
BRANCH   1   5
ATOM      5  C13  11 d         -12.543 205.954 114.543  0.00  0.00     0.117 C 
BRANCH   5   6
ATOM      6  C14  11 d         -12.956 207.130 113.604  0.00  0.00     0.066 A 
ATOM      7  C15  11 d         -14.209 206.721 112.845  0.00  0.00    -0.015 A 
ATOM      8  C16  11 d         -14.224 206.640 111.430  0.00  0.00     0.083 A 
ATOM      9  C26  11 d         -15.399 206.423 113.553  0.00  0.00     0.011 A 
ATOM     10  O3   11 d         -13.114 206.958 110.598  0.00  0.00    -0.310 OA
ATOM     11  C23  11 d         -15.391 206.226 110.766  0.00  0.00     0.038 A 
ATOM     12  C17  11 d         -11.937 207.403 111.267  0.00  0.00     0.083 A 
ATOM     13  C18  11 d         -11.816 207.528 112.674  0.00  0.00    -0.015 A 
ATOM     14  C22  11 d         -10.851 207.730 110.438  0.00  0.00     0.038 A 
ATOM     15  C19  11 d         -10.615 208.061 113.200  0.00  0.00     0.011 A 
ATOM     16  C20  11 d          -9.540 208.386 112.363  0.00  0.00     0.001 A 
ATOM     17  C21  11 d          -9.653 208.210 110.981  0.00  0.00     0.003 A 
ATOM     18  C24  11 d         -16.553 205.912 111.483  0.00  0.00     0.003 A 
ATOM     19  C25  11 d         -16.558 206.018 112.877  0.00  0.00     0.001 A 
ENDBRANCH   5   6
ENDBRANCH   1   5
BRANCH   3  20
ATOM     20  C2   11 d         -13.113 207.627 118.054  0.00  0.00     0.149 C 
BRANCH  20  21
ATOM     21  C3   11 d         -14.135 206.879 118.916  0.00  0.00     0.195 C 
BRANCH  21  22
ATOM     22  O2   11 d         -13.604 205.572 119.271  0.00  0.00    -0.349 OA
BRANCH  22  23
ATOM     23  C4   11 d         -14.567 204.558 119.003  0.00  0.00     0.075 A 
ATOM     24  C5   11 d         -15.379 204.032 120.040  0.00  0.00    -0.021 A 
ATOM     25  C6   11 d         -16.275 202.981 119.731  0.00  0.00     0.010 A 
ATOM     26  C7   11 d         -16.348 202.457 118.433  0.00  0.00     0.001 A 
ATOM     27  C8   11 d         -15.515 202.960 117.426  0.00  0.00     0.003 A 
ATOM     28  C9   11 d         -14.618 203.996 117.715  0.00  0.00     0.037 A 
BRANCH  24  29
ATOM     29  C10  11 d         -15.250 204.533 121.473  0.00  0.00     0.013 C 
ATOM     30  C11  11 d         -15.152 203.384 122.488  0.00  0.00     0.015 C 
ATOM     31  C12  11 d         -16.385 205.502 121.822  0.00  0.00     0.015 C 
ENDBRANCH  24  29
ENDBRANCH  22  23
ENDBRANCH  21  22
ENDBRANCH  20  21
ENDBRANCH   3  20
TORSDOF 7
ENDMDL
MODEL 2
REMARK VINA RESULT:      -9.6      0.968      3.516
REMARK  7 active torsions:
REMARK  status: ('A' for Active; 'I' for Inactive)
REMARK       I    between atoms: C1_1  and  N1_3 
REMARK    1  A    between atoms: C1_1  and  C13_16 
REMARK    2  A    between atoms: N1_3  and  C2_4 
REMARK    3  A    between atoms: C2_4  and  C3_5 
REMARK    4  A    between atoms: C3_5  and  O2_6 
REMARK    5  A    between atoms: O2_6  and  C4_7 
REMARK    6  A    between atoms: C5_8  and  C10_13 
REMARK    7  A    between atoms: C13_16  and  C14_17 
ROOT
ATOM      1  C1   11 d         -13.364 207.993 115.970  0.00  0.00     0.218 C 
ATOM      2  O1   11 d         -14.499 207.767 116.519  0.00  0.00    -0.274 OA
ATOM      3  N1   11 d         -12.169 207.949 116.743  0.00  0.00    -0.359 N 
ATOM      4  H1   11 d         -11.226 208.136 116.265  0.00  0.00     0.162 HD
ENDROOT
BRANCH   1   5
ATOM      5  C13  11 d         -13.302 208.292 114.497  0.00  0.00     0.117 C 
BRANCH   5   6
ATOM      6  C14  11 d         -13.014 207.088 113.549  0.00  0.00     0.066 A 
ATOM      7  C15  11 d         -11.822 207.440 112.671  0.00  0.00    -0.015 A 
ATOM      8  C16  11 d         -11.933 207.496 111.259  0.00  0.00     0.083 A 
ATOM      9  C26  11 d         -10.564 207.709 113.264  0.00  0.00     0.011 A 
ATOM     10  O3   11 d         -13.124 207.202 110.537  0.00  0.00    -0.310 OA
ATOM     11  C23  11 d         -10.818 207.859 110.485  0.00  0.00     0.038 A 
ATOM     12  C17  11 d         -14.249 206.810 111.318  0.00  0.00     0.083 A 
ATOM     13  C18  11 d         -14.246 206.713 112.733  0.00  0.00    -0.015 A 
ATOM     14  C22  11 d         -15.416 206.506 110.598  0.00  0.00     0.038 A 
ATOM     15  C19  11 d         -15.412 206.231 113.375  0.00  0.00     0.011 A 
ATOM     16  C20  11 d         -16.568 205.928 112.645  0.00  0.00     0.001 A 
ATOM     17  C21  11 d         -16.575 206.077 111.256  0.00  0.00     0.003 A 
ATOM     18  C24  11 d          -9.587 208.144 111.089  0.00  0.00     0.003 A 
ATOM     19  C25  11 d          -9.459 208.062 112.479  0.00  0.00     0.001 A 
ENDBRANCH   5   6
ENDBRANCH   1   5
BRANCH   3  20
ATOM     20  C2   11 d         -12.170 207.651 118.206  0.00  0.00     0.149 C 
BRANCH  20  21
ATOM     21  C3   11 d         -12.368 206.157 118.487  0.00  0.00     0.195 C 
BRANCH  21  22
ATOM     22  O2   11 d         -13.496 205.980 119.388  0.00  0.00    -0.349 OA
BRANCH  22  23
ATOM     23  C4   11 d         -14.339 204.931 118.925  0.00  0.00     0.075 A 
ATOM     24  C5   11 d         -15.228 204.266 119.808  0.00  0.00    -0.021 A 
ATOM     25  C6   11 d         -15.998 203.189 119.310  0.00  0.00     0.010 A 
ATOM     26  C7   11 d         -15.874 202.773 117.977  0.00  0.00     0.001 A 
ATOM     27  C8   11 d         -14.968 203.414 117.124  0.00  0.00     0.003 A 
ATOM     28  C9   11 d         -14.193 204.479 117.601  0.00  0.00     0.037 A 
BRANCH  24  29
ATOM     29  C10  11 d         -15.310 204.652 121.280  0.00  0.00     0.013 C 
ATOM     30  C11  11 d         -15.378 203.424 122.203  0.00  0.00     0.015 C 
ATOM     31  C12  11 d         -16.475 205.615 121.532  0.00  0.00     0.015 C 
ENDBRANCH  24  29
ENDBRANCH  22  23
ENDBRANCH  21  22
ENDBRANCH  20  21
ENDBRANCH   3  20
TORSDOF 7
ENDMDL
MODEL 3
REMARK VINA RESULT:      -9.4      3.540      6.569
REMARK  7 active torsions:
REMARK  status: ('A' for Active; 'I' for Inactive)
REMARK       I    between atoms: C1_1  and  N1_3 
REMARK    1  A    between atoms: C1_1  and  C13_16 
REMARK    2  A    between atoms: N1_3  and  C2_4 
REMARK    3  A    between atoms: C2_4  and  C3_5 
REMARK    4  A    between atoms: C3_5  and  O2_6 
REMARK    5  A    between atoms: O2_6  and  C4_7 
REMARK    6  A    between atoms: C5_8  and  C10_13 
REMARK    7  A    between atoms: C13_16  and  C14_17 
ROOT
ATOM      1  C1   11 d         -12.111 206.373 115.873  0.00  0.00     0.218 C 
ATOM      2  O1   11 d         -13.026 206.446 116.766  0.00  0.00    -0.274 OA
ATOM      3  N1   11 d         -10.754 206.642 116.208  0.00  0.00    -0.359 N 
ATOM      4  H1   11 d         -10.000 206.571 115.446  0.00  0.00     0.162 HD
ENDROOT
BRANCH   1   5
ATOM      5  C13  11 d         -12.482 205.987 114.466  0.00  0.00     0.117 C 
BRANCH   5   6
ATOM      6  C14  11 d         -12.943 207.140 113.522  0.00  0.00     0.066 A 
ATOM      7  C15  11 d         -14.227 206.710 112.829  0.00  0.00    -0.015 A 
ATOM      8  C16  11 d         -14.306 206.598 111.419  0.00  0.00     0.083 A 
ATOM      9  C26  11 d         -15.382 206.422 113.598  0.00  0.00     0.011 A 
ATOM     10  O3   11 d         -13.236 206.903 110.530  0.00  0.00    -0.310 OA
ATOM     11  C23  11 d         -15.500 206.165 110.818  0.00  0.00     0.038 A 
ATOM     12  C17  11 d         -12.033 207.366 111.135  0.00  0.00     0.083 A 
ATOM     13  C18  11 d         -11.848 207.523 112.532  0.00  0.00    -0.015 A 
ATOM     14  C22  11 d         -10.987 207.680 110.251  0.00  0.00     0.038 A 
ATOM     15  C19  11 d         -10.627 208.072 112.991  0.00  0.00     0.011 A 
ATOM     16  C20  11 d          -9.593 208.383 112.099  0.00  0.00     0.001 A 
ATOM     17  C21  11 d          -9.768 208.177 110.729  0.00  0.00     0.003 A 
ATOM     18  C24  11 d         -16.626 205.863 111.594  0.00  0.00     0.003 A 
ATOM     19  C25  11 d         -16.568 205.999 112.984  0.00  0.00     0.001 A 
ENDBRANCH   5   6
ENDBRANCH   1   5
BRANCH   3  20
ATOM     20  C2   11 d         -10.328 207.023 117.587  0.00  0.00     0.149 C 
BRANCH  20  21
ATOM     21  C3   11 d          -9.410 208.250 117.585  0.00  0.00     0.195 C 
BRANCH  21  22
ATOM     22  O2   11 d          -8.023 207.817 117.502  0.00  0.00    -0.349 OA
BRANCH  22  23
ATOM     23  C4   11 d          -7.292 208.667 116.625  0.00  0.00     0.075 A 
ATOM     24  C5   11 d          -6.112 209.321 117.062  0.00  0.00    -0.021 A 
ATOM     25  C6   11 d          -5.458 210.204 116.171  0.00  0.00     0.010 A 
ATOM     26  C7   11 d          -5.973 210.444 114.889  0.00  0.00     0.001 A 
ATOM     27  C8   11 d          -7.158 209.820 114.482  0.00  0.00     0.003 A 
ATOM     28  C9   11 d          -7.822 208.947 115.353  0.00  0.00     0.037 A 
BRANCH  24  29
ATOM     29  C10  11 d          -5.587 209.136 118.481  0.00  0.00     0.013 C 
ATOM     30  C11  11 d          -5.292 210.476 119.174  0.00  0.00     0.015 C 
ATOM     31  C12  11 d          -4.368 208.208 118.501  0.00  0.00     0.015 C 
ENDBRANCH  24  29
ENDBRANCH  22  23
ENDBRANCH  21  22
ENDBRANCH  20  21
ENDBRANCH   3  20
TORSDOF 7
ENDMDL
MODEL 4
REMARK VINA RESULT:      -9.2      3.323      6.136
REMARK  7 active torsions:
REMARK  status: ('A' for Active; 'I' for Inactive)
REMARK       I    between atoms: C1_1  and  N1_3 
REMARK    1  A    between atoms: C1_1  and  C13_16 
REMARK    2  A    between atoms: N1_3  and  C2_4 
REMARK    3  A    between atoms: C2_4  and  C3_5 
REMARK    4  A    between atoms: C3_5  and  O2_6 
REMARK    5  A    between atoms: O2_6  and  C4_7 
REMARK    6  A    between atoms: C5_8  and  C10_13 
REMARK    7  A    between atoms: C13_16  and  C14_17 
ROOT
ATOM      1  C1   11 d         -12.109 206.130 115.888  0.00  0.00     0.218 C 
ATOM      2  O1   11 d         -12.062 205.162 116.725  0.00  0.00    -0.274 OA
ATOM      3  N1   11 d         -11.862 207.465 116.315  0.00  0.00    -0.359 N 
ATOM      4  H1   11 d         -11.903 208.263 115.596  0.00  0.00     0.162 HD
ENDROOT
BRANCH   1   5
ATOM      5  C13  11 d         -12.417 205.841 114.443  0.00  0.00     0.117 C 
BRANCH   5   6
ATOM      6  C14  11 d         -12.866 207.052 113.568  0.00  0.00     0.066 A 
ATOM      7  C15  11 d         -14.153 206.674 112.848  0.00  0.00    -0.015 A 
ATOM      8  C16  11 d         -14.229 206.646 111.433  0.00  0.00     0.083 A 
ATOM      9  C26  11 d         -15.311 206.352 113.596  0.00  0.00     0.011 A 
ATOM     10  O3   11 d         -13.155 206.993 110.566  0.00  0.00    -0.310 OA
ATOM     11  C23  11 d         -15.425 206.259 110.806  0.00  0.00     0.038 A 
ATOM     12  C17  11 d         -11.949 207.410 111.199  0.00  0.00     0.083 A 
ATOM     13  C18  11 d         -11.766 207.483 112.604  0.00  0.00    -0.015 A 
ATOM     14  C22  11 d         -10.898 207.767 110.338  0.00  0.00     0.038 A 
ATOM     15  C19  11 d         -10.542 207.993 113.096  0.00  0.00     0.011 A 
ATOM     16  C20  11 d          -9.502 208.348 112.226  0.00  0.00     0.001 A 
ATOM     17  C21  11 d          -9.676 208.224 110.846  0.00  0.00     0.003 A 
ATOM     18  C24  11 d         -16.555 205.922 111.561  0.00  0.00     0.003 A 
ATOM     19  C25  11 d         -16.500 205.975 112.957  0.00  0.00     0.001 A 
ENDBRANCH   5   6
ENDBRANCH   1   5
BRANCH   3  20
ATOM     20  C2   11 d         -11.547 207.809 117.732  0.00  0.00     0.149 C 
BRANCH  20  21
ATOM     21  C3   11 d         -10.249 208.616 117.852  0.00  0.00     0.195 C 
BRANCH  21  22
ATOM     22  O2   11 d          -9.298 208.153 116.853  0.00  0.00    -0.349 OA
BRANCH  22  23
ATOM     23  C4   11 d          -8.004 208.012 117.429  0.00  0.00     0.075 A 
ATOM     24  C5   11 d          -6.857 208.535 116.781  0.00  0.00    -0.021 A 
ATOM     25  C6   11 d          -5.588 208.312 117.366  0.00  0.00     0.010 A 
ATOM     26  C7   11 d          -5.463 207.574 118.552  0.00  0.00     0.001 A 
ATOM     27  C8   11 d          -6.600 207.033 119.164  0.00  0.00     0.003 A 
ATOM     28  C9   11 d          -7.863 207.239 118.596  0.00  0.00     0.037 A 
BRANCH  24  29
ATOM     29  C10  11 d          -6.969 209.265 115.448  0.00  0.00     0.013 C 
ATOM     30  C11  11 d          -6.546 208.384 114.262  0.00  0.00     0.015 C 
ATOM     31  C12  11 d          -6.193 210.586 115.477  0.00  0.00     0.015 C 
ENDBRANCH  24  29
ENDBRANCH  22  23
ENDBRANCH  21  22
ENDBRANCH  20  21
ENDBRANCH   3  20
TORSDOF 7
ENDMDL
MODEL 5
REMARK VINA RESULT:      -9.1      3.718      7.043
REMARK  7 active torsions:
REMARK  status: ('A' for Active; 'I' for Inactive)
REMARK       I    between atoms: C1_1  and  N1_3 
REMARK    1  A    between atoms: C1_1  and  C13_16 
REMARK    2  A    between atoms: N1_3  and  C2_4 
REMARK    3  A    between atoms: C2_4  and  C3_5 
REMARK    4  A    between atoms: C3_5  and  O2_6 
REMARK    5  A    between atoms: O2_6  and  C4_7 
REMARK    6  A    between atoms: C5_8  and  C10_13 
REMARK    7  A    between atoms: C13_16  and  C14_17 
ROOT
ATOM      1  C1   11 d         -10.569 208.061 112.695  0.00  0.00     0.218 C 
ATOM      2  O1   11 d         -10.385 208.028 111.428  0.00  0.00    -0.274 OA
ATOM      3  N1   11 d          -9.468 208.256 113.577  0.00  0.00    -0.359 N 
ATOM      4  H1   11 d          -9.643 208.285 114.637  0.00  0.00     0.162 HD
ENDROOT
BRANCH   1   5
ATOM      5  C13  11 d         -11.961 207.904 113.244  0.00  0.00     0.117 C 
BRANCH   5   6
ATOM      6  C14  11 d         -12.573 206.470 113.199  0.00  0.00     0.066 A 
ATOM      7  C15  11 d         -13.821 206.507 112.330  0.00  0.00    -0.015 A 
ATOM      8  C16  11 d         -15.096 206.171 112.849  0.00  0.00     0.083 A 
ATOM      9  C26  11 d         -13.720 206.872 110.965  0.00  0.00     0.011 A 
ATOM     10  O3   11 d         -15.329 205.743 114.187  0.00  0.00    -0.310 OA
ATOM     11  C23  11 d         -16.230 206.251 112.023  0.00  0.00     0.038 A 
ATOM     12  C17  11 d         -14.178 205.637 115.019  0.00  0.00     0.083 A 
ATOM     13  C18  11 d         -12.857 205.939 114.600  0.00  0.00    -0.015 A 
ATOM     14  C22  11 d         -14.412 205.198 116.333  0.00  0.00     0.038 A 
ATOM     15  C19  11 d         -11.796 205.711 115.508  0.00  0.00     0.011 A 
ATOM     16  C20  11 d         -12.043 205.271 116.815  0.00  0.00     0.001 A 
ATOM     17  C21  11 d         -13.353 205.025 117.232  0.00  0.00     0.003 A 
ATOM     18  C24  11 d         -16.116 206.636 110.682  0.00  0.00     0.003 A 
ATOM     19  C25  11 d         -14.858 206.940 110.151  0.00  0.00     0.001 A 
ENDBRANCH   5   6
ENDBRANCH   1   5
BRANCH   3  20
ATOM     20  C2   11 d          -8.068 208.424 113.089  0.00  0.00     0.149 C 
BRANCH  20  21
ATOM     21  C3   11 d          -7.131 208.922 114.194  0.00  0.00     0.195 C 
BRANCH  21  22
ATOM     22  O2   11 d          -7.319 208.114 115.389  0.00  0.00    -0.349 OA
BRANCH  22  23
ATOM     23  C4   11 d          -6.739 208.759 116.519  0.00  0.00     0.075 A 
ATOM     24  C5   11 d          -7.143 208.423 117.836  0.00  0.00    -0.021 A 
ATOM     25  C6   11 d          -6.580 209.138 118.920  0.00  0.00     0.010 A 
ATOM     26  C7   11 d          -5.657 210.170 118.698  0.00  0.00     0.001 A 
ATOM     27  C8   11 d          -5.293 210.516 117.391  0.00  0.00     0.003 A 
ATOM     28  C9   11 d          -5.844 209.822 116.306  0.00  0.00     0.037 A 
BRANCH  24  29
ATOM     29  C10  11 d          -8.208 207.363 118.088  0.00  0.00     0.013 C 
ATOM     30  C11  11 d          -9.631 207.942 118.049  0.00  0.00     0.015 C 
ATOM     31  C12  11 d          -7.939 206.611 119.396  0.00  0.00     0.015 C 
ENDBRANCH  24  29
ENDBRANCH  22  23
ENDBRANCH  21  22
ENDBRANCH  20  21
ENDBRANCH   3  20
TORSDOF 7
ENDMDL
MODEL 6
REMARK VINA RESULT:      -9.1      3.548      7.222
REMARK  7 active torsions:
REMARK  status: ('A' for Active; 'I' for Inactive)
REMARK       I    between atoms: C1_1  and  N1_3 
REMARK    1  A    between atoms: C1_1  and  C13_16 
REMARK    2  A    between atoms: N1_3  and  C2_4 
REMARK    3  A    between atoms: C2_4  and  C3_5 
REMARK    4  A    between atoms: C3_5  and  O2_6 
REMARK    5  A    between atoms: O2_6  and  C4_7 
REMARK    6  A    between atoms: C5_8  and  C10_13 
REMARK    7  A    between atoms: C13_16  and  C14_17 
ROOT
ATOM      1  C1   11 d         -12.808 207.797 116.024  0.00  0.00     0.218 C 
ATOM      2  O1   11 d         -13.607 207.057 116.700  0.00  0.00    -0.274 OA
ATOM      3  N1   11 d         -11.627 208.317 116.624  0.00  0.00    -0.359 N 
ATOM      4  H1   11 d         -10.967 208.932 116.040  0.00  0.00     0.162 HD
ENDROOT
BRANCH   1   5
ATOM      5  C13  11 d         -13.124 208.102 114.585  0.00  0.00     0.117 C 
BRANCH   5   6
ATOM      6  C14  11 d         -12.848 206.967 113.552  0.00  0.00     0.066 A 
ATOM      7  C15  11 d         -11.679 207.389 112.675  0.00  0.00    -0.015 A 
ATOM      8  C16  11 d         -11.821 207.539 111.272  0.00  0.00     0.083 A 
ATOM      9  C26  11 d         -10.410 207.629 113.257  0.00  0.00     0.011 A 
ATOM     10  O3   11 d         -13.025 207.283 110.558  0.00  0.00    -0.310 OA
ATOM     11  C23  11 d         -10.726 207.963 110.501  0.00  0.00     0.038 A 
ATOM     12  C17  11 d         -14.129 206.828 111.334  0.00  0.00     0.083 A 
ATOM     13  C18  11 d         -14.095 206.636 112.739  0.00  0.00    -0.015 A 
ATOM     14  C22  11 d         -15.309 206.562 110.620  0.00  0.00     0.038 A 
ATOM     15  C19  11 d         -15.242 206.101 113.372  0.00  0.00     0.011 A 
ATOM     16  C20  11 d         -16.412 205.837 112.648  0.00  0.00     0.001 A 
ATOM     17  C21  11 d         -16.450 206.079 111.272  0.00  0.00     0.003 A 
ATOM     18  C24  11 d          -9.484 208.219 111.096  0.00  0.00     0.003 A 
ATOM     19  C25  11 d          -9.325 208.045 112.474  0.00  0.00     0.001 A 
ENDBRANCH   5   6
ENDBRANCH   1   5
BRANCH   3  20
ATOM     20  C2   11 d         -11.260 208.043 118.045  0.00  0.00     0.149 C 
BRANCH  20  21
ATOM     21  C3   11 d          -9.829 208.489 118.364  0.00  0.00     0.195 C 
BRANCH  21  22
ATOM     22  O2   11 d          -8.941 208.075 117.289  0.00  0.00    -0.349 OA
BRANCH  22  23
ATOM     23  C4   11 d          -7.582 208.254 117.673  0.00  0.00     0.075 A 
ATOM     24  C5   11 d          -6.583 208.536 116.707  0.00  0.00    -0.021 A 
ATOM     25  C6   11 d          -5.239 208.642 117.135  0.00  0.00     0.010 A 
ATOM     26  C7   11 d          -4.896 208.456 118.481  0.00  0.00     0.001 A 
ATOM     27  C8   11 d          -5.886 208.143 119.420  0.00  0.00     0.003 A 
ATOM     28  C9   11 d          -7.222 208.028 119.014  0.00  0.00     0.037 A 
BRANCH  24  29
ATOM     29  C10  11 d          -6.929 208.656 115.228  0.00  0.00     0.013 C 
ATOM     30  C11  11 d          -5.869 208.006 114.325  0.00  0.00     0.015 C 
ATOM     31  C12  11 d          -7.185 210.116 114.840  0.00  0.00     0.015 C 
ENDBRANCH  24  29
ENDBRANCH  22  23
ENDBRANCH  21  22
ENDBRANCH  20  21
ENDBRANCH   3  20
TORSDOF 7
ENDMDL
MODEL 7
REMARK VINA RESULT:      -9.0      1.088      2.289
REMARK  7 active torsions:
REMARK  status: ('A' for Active; 'I' for Inactive)
REMARK       I    between atoms: C1_1  and  N1_3 
REMARK    1  A    between atoms: C1_1  and  C13_16 
REMARK    2  A    between atoms: N1_3  and  C2_4 
REMARK    3  A    between atoms: C2_4  and  C3_5 
REMARK    4  A    between atoms: C3_5  and  O2_6 
REMARK    5  A    between atoms: O2_6  and  C4_7 
REMARK    6  A    between atoms: C5_8  and  C10_13 
REMARK    7  A    between atoms: C13_16  and  C14_17 
ROOT
ATOM      1  C1   11 d         -12.817 206.580 116.409  0.00  0.00     0.218 C 
ATOM      2  O1   11 d         -13.218 207.758 116.711  0.00  0.00    -0.274 OA
ATOM      3  N1   11 d         -12.442 205.662 117.431  0.00  0.00    -0.359 N 
ATOM      4  H1   11 d         -12.112 204.677 117.157  0.00  0.00     0.162 HD
ENDROOT
BRANCH   1   5
ATOM      5  C13  11 d         -12.756 206.169 114.962  0.00  0.00     0.117 C 
BRANCH   5   6
ATOM      6  C14  11 d         -13.068 207.274 113.907  0.00  0.00     0.066 A 
ATOM      7  C15  11 d         -14.206 206.786 113.022  0.00  0.00    -0.015 A 
ATOM      8  C16  11 d         -14.038 206.621 111.624  0.00  0.00     0.083 A 
ATOM      9  C26  11 d         -15.470 206.500 113.592  0.00  0.00     0.011 A 
ATOM     10  O3   11 d         -12.837 206.918 110.921  0.00  0.00    -0.310 OA
ATOM     11  C23  11 d         -15.102 206.136 110.846  0.00  0.00     0.038 A 
ATOM     12  C17  11 d         -11.764 207.433 111.704  0.00  0.00     0.083 A 
ATOM     13  C18  11 d         -11.826 207.647 113.104  0.00  0.00    -0.015 A 
ATOM     14  C22  11 d         -10.587 207.740 111.000  0.00  0.00     0.038 A 
ATOM     15  C19  11 d         -10.712 208.242 113.743  0.00  0.00     0.011 A 
ATOM     16  C20  11 d          -9.545 208.546 113.030  0.00  0.00     0.001 A 
ATOM     17  C21  11 d          -9.478 208.284 111.659  0.00  0.00     0.003 A 
ATOM     18  C24  11 d         -16.340 205.835 111.429  0.00  0.00     0.003 A 
ATOM     19  C25  11 d         -16.525 206.024 112.802  0.00  0.00     0.001 A 
ENDBRANCH   5   6
ENDBRANCH   1   5
BRANCH   3  20
ATOM     20  C2   11 d         -12.488 206.012 118.881  0.00  0.00     0.149 C 
BRANCH  20  21
ATOM     21  C3   11 d         -13.902 205.885 119.457  0.00  0.00     0.195 C 
BRANCH  21  22
ATOM     22  O2   11 d         -14.149 204.502 119.833  0.00  0.00    -0.349 OA
BRANCH  22  23
ATOM     23  C4   11 d         -15.535 204.299 120.090  0.00  0.00     0.075 A 
ATOM     24  C5   11 d         -16.325 203.495 119.229  0.00  0.00    -0.021 A 
ATOM     25  C6   11 d         -17.710 203.378 119.496  0.00  0.00     0.010 A 
ATOM     26  C7   11 d         -18.294 204.054 120.576  0.00  0.00     0.001 A 
ATOM     27  C8   11 d         -17.510 204.873 121.397  0.00  0.00     0.003 A 
ATOM     28  C9   11 d         -16.138 205.005 121.145  0.00  0.00     0.037 A 
BRANCH  24  29
ATOM     29  C10  11 d         -15.720 202.823 118.003  0.00  0.00     0.013 C 
ATOM     30  C11  11 d         -15.406 203.826 116.882  0.00  0.00     0.015 C 
ATOM     31  C12  11 d         -16.612 201.680 117.506  0.00  0.00     0.015 C 
ENDBRANCH  24  29
ENDBRANCH  22  23
ENDBRANCH  21  22
ENDBRANCH  20  21
ENDBRANCH   3  20
TORSDOF 7
ENDMDL
MODEL 8
REMARK VINA RESULT:      -8.9      3.685      7.608
REMARK  7 active torsions:
REMARK  status: ('A' for Active; 'I' for Inactive)
REMARK       I    between atoms: C1_1  and  N1_3 
REMARK    1  A    between atoms: C1_1  and  C13_16 
REMARK    2  A    between atoms: N1_3  and  C2_4 
REMARK    3  A    between atoms: C2_4  and  C3_5 
REMARK    4  A    between atoms: C3_5  and  O2_6 
REMARK    5  A    between atoms: O2_6  and  C4_7 
REMARK    6  A    between atoms: C5_8  and  C10_13 
REMARK    7  A    between atoms: C13_16  and  C14_17 
ROOT
ATOM      1  C1   11 d         -10.620 207.489 112.385  0.00  0.00     0.218 C 
ATOM      2  O1   11 d         -10.592 208.032 111.226  0.00  0.00    -0.274 OA
ATOM      3  N1   11 d          -9.620 207.799 113.350  0.00  0.00    -0.359 N 
ATOM      4  H1   11 d          -9.663 207.336 114.319  0.00  0.00     0.162 HD
ENDROOT
BRANCH   1   5
ATOM      5  C13  11 d         -11.728 206.528 112.724  0.00  0.00     0.117 C 
BRANCH   5   6
ATOM      6  C14  11 d         -12.953 207.115 113.490  0.00  0.00     0.066 A 
ATOM      7  C15  11 d         -12.981 206.512 114.887  0.00  0.00    -0.015 A 
ATOM      8  C16  11 d         -14.081 205.740 115.338  0.00  0.00     0.083 A 
ATOM      9  C26  11 d         -11.896 206.730 115.772  0.00  0.00     0.011 A 
ATOM     10  O3   11 d         -15.251 205.486 114.569  0.00  0.00    -0.310 OA
ATOM     11  C23  11 d         -14.054 205.171 116.623  0.00  0.00     0.038 A 
ATOM     12  C17  11 d         -15.291 206.083 113.276  0.00  0.00     0.083 A 
ATOM     13  C18  11 d         -14.253 206.879 112.729  0.00  0.00    -0.015 A 
ATOM     14  C22  11 d         -16.456 205.842 112.529  0.00  0.00     0.038 A 
ATOM     15  C19  11 d         -14.461 207.477 111.464  0.00  0.00     0.011 A 
ATOM     16  C20  11 d         -15.629 207.232 110.730  0.00  0.00     0.001 A 
ATOM     17  C21  11 d         -16.623 206.404 111.257  0.00  0.00     0.003 A 
ATOM     18  C24  11 d         -12.963 205.377 117.477  0.00  0.00     0.003 A 
ATOM     19  C25  11 d         -11.887 206.163 117.053  0.00  0.00     0.001 A 
ENDBRANCH   5   6
ENDBRANCH   1   5
BRANCH   3  20
ATOM     20  C2   11 d          -8.503 208.748 113.071  0.00  0.00     0.149 C 
BRANCH  20  21
ATOM     21  C3   11 d          -8.194 209.641 114.278  0.00  0.00     0.195 C 
BRANCH  21  22
ATOM     22  O2   11 d          -6.875 209.315 114.796  0.00  0.00    -0.349 OA
BRANCH  22  23
ATOM     23  C4   11 d          -6.988 208.550 115.991  0.00  0.00     0.075 A 
ATOM     24  C5   11 d          -5.911 207.748 116.448  0.00  0.00    -0.021 A 
ATOM     25  C6   11 d          -6.099 206.958 117.607  0.00  0.00     0.010 A 
ATOM     26  C7   11 d          -7.327 206.952 118.281  0.00  0.00     0.001 A 
ATOM     27  C8   11 d          -8.395 207.721 117.801  0.00  0.00     0.003 A 
ATOM     28  C9   11 d          -8.229 208.505 116.652  0.00  0.00     0.037 A 
BRANCH  24  29
ATOM     29  C10  11 d          -4.598 207.678 115.677  0.00  0.00     0.013 C 
ATOM     30  C11  11 d          -3.973 206.275 115.712  0.00  0.00     0.015 C 
ATOM     31  C12  11 d          -3.616 208.748 116.164  0.00  0.00     0.015 C 
ENDBRANCH  24  29
ENDBRANCH  22  23
ENDBRANCH  21  22
ENDBRANCH  20  21
ENDBRANCH   3  20
TORSDOF 7
ENDMDL
MODEL 9
REMARK VINA RESULT:      -8.9      3.991      8.541
REMARK  7 active torsions:
REMARK  status: ('A' for Active; 'I' for Inactive)
REMARK       I    between atoms: C1_1  and  N1_3 
REMARK    1  A    between atoms: C1_1  and  C13_16 
REMARK    2  A    between atoms: N1_3  and  C2_4 
REMARK    3  A    between atoms: C2_4  and  C3_5 
REMARK    4  A    between atoms: C3_5  and  O2_6 
REMARK    5  A    between atoms: O2_6  and  C4_7 
REMARK    6  A    between atoms: C5_8  and  C10_13 
REMARK    7  A    between atoms: C13_16  and  C14_17 
ROOT
ATOM      1  C1   11 d         -10.441 208.082 113.790  0.00  0.00     0.218 C 
ATOM      2  O1   11 d         -10.013 208.126 114.996  0.00  0.00    -0.274 OA
ATOM      3  N1   11 d          -9.527 208.121 112.699  0.00  0.00    -0.359 N 
ATOM      4  H1   11 d          -9.905 208.079 111.694  0.00  0.00     0.162 HD
ENDROOT
BRANCH   1   5
ATOM      5  C13  11 d         -11.920 207.976 113.534  0.00  0.00     0.117 C 
BRANCH   5   6
ATOM      6  C14  11 d         -12.489 206.543 113.298  0.00  0.00     0.066 A 
ATOM      7  C15  11 d         -13.558 206.622 112.218  0.00  0.00    -0.015 A 
ATOM      8  C16  11 d         -14.900 206.247 112.476  0.00  0.00     0.083 A 
ATOM      9  C26  11 d         -13.216 207.067 110.917  0.00  0.00     0.011 A 
ATOM     10  O3   11 d         -15.365 205.740 113.722  0.00  0.00    -0.310 OA
ATOM     11  C23  11 d         -15.866 206.367 111.462  0.00  0.00     0.038 A 
ATOM     12  C17  11 d         -14.383 205.594 114.744  0.00  0.00     0.083 A 
ATOM     13  C18  11 d         -13.014 205.930 114.591  0.00  0.00    -0.015 A 
ATOM     14  C22  11 d         -14.845 205.077 115.965  0.00  0.00     0.038 A 
ATOM     15  C19  11 d         -12.132 205.656 115.664  0.00  0.00     0.011 A 
ATOM     16  C20  11 d         -12.605 205.138 116.876  0.00  0.00     0.001 A 
ATOM     17  C21  11 d         -13.965 204.859 117.032  0.00  0.00     0.003 A 
ATOM     18  C24  11 d         -15.515 206.831 110.188  0.00  0.00     0.003 A 
ATOM     19  C25  11 d         -14.188 207.174 109.914  0.00  0.00     0.001 A 
ENDBRANCH   5   6
ENDBRANCH   1   5
BRANCH   3  20
ATOM     20  C2   11 d          -8.050 208.220 112.892  0.00  0.00     0.149 C 
BRANCH  20  21
ATOM     21  C3   11 d          -7.627 209.611 113.375  0.00  0.00     0.195 C 
BRANCH  21  22
ATOM     22  O2   11 d          -6.184 209.750 113.246  0.00  0.00    -0.349 OA
BRANCH  22  23
ATOM     23  C4   11 d          -5.569 209.729 114.530  0.00  0.00     0.075 A 
ATOM     24  C5   11 d          -4.551 208.790 114.835  0.00  0.00    -0.021 A 
ATOM     25  C6   11 d          -4.017 208.772 116.145  0.00  0.00     0.010 A 
ATOM     26  C7   11 d          -4.495 209.650 117.128  0.00  0.00     0.001 A 
ATOM     27  C8   11 d          -5.525 210.549 116.825  0.00  0.00     0.003 A 
ATOM     28  C9   11 d          -6.069 210.577 115.534  0.00  0.00     0.037 A 
BRANCH  24  29
ATOM     29  C10  11 d          -4.082 207.773 113.802  0.00  0.00     0.013 C 
ATOM     30  C11  11 d          -3.571 206.476 114.449  0.00  0.00     0.015 C 
ATOM     31  C12  11 d          -3.039 208.385 112.861  0.00  0.00     0.015 C 
ENDBRANCH  24  29
ENDBRANCH  22  23
ENDBRANCH  21  22
ENDBRANCH  20  21
ENDBRANCH   3  20
TORSDOF 7
ENDMDL
MODEL 10
REMARK VINA RESULT:      -8.9      1.245      4.036
REMARK  7 active torsions:
REMARK  status: ('A' for Active; 'I' for Inactive)
REMARK       I    between atoms: C1_1  and  N1_3 
REMARK    1  A    between atoms: C1_1  and  C13_16 
REMARK    2  A    between atoms: N1_3  and  C2_4 
REMARK    3  A    between atoms: C2_4  and  C3_5 
REMARK    4  A    between atoms: C3_5  and  O2_6 
REMARK    5  A    between atoms: O2_6  and  C4_7 
REMARK    6  A    between atoms: C5_8  and  C10_13 
REMARK    7  A    between atoms: C13_16  and  C14_17 
ROOT
ATOM      1  C1   11 d         -13.680 208.064 115.916  0.00  0.00     0.218 C 
ATOM      2  O1   11 d         -14.935 207.970 116.156  0.00  0.00    -0.274 OA
ATOM      3  N1   11 d         -12.730 207.857 116.956  0.00  0.00    -0.359 N 
ATOM      4  H1   11 d         -11.682 207.936 116.734  0.00  0.00     0.162 HD
ENDROOT
BRANCH   1   5
ATOM      5  C13  11 d         -13.217 208.384 114.520  0.00  0.00     0.117 C 
BRANCH   5   6
ATOM      6  C14  11 d         -12.778 207.178 113.634  0.00  0.00     0.066 A 
ATOM      7  C15  11 d         -11.516 207.570 112.880  0.00  0.00    -0.015 A 
ATOM      8  C16  11 d         -11.477 207.596 111.464  0.00  0.00     0.083 A 
ATOM      9  C26  11 d         -10.341 207.906 113.597  0.00  0.00     0.011 A 
ATOM     10  O3   11 d         -12.570 207.237 110.626  0.00  0.00    -0.310 OA
ATOM     11  C23  11 d         -10.303 207.996 110.804  0.00  0.00     0.038 A 
ATOM     12  C17  11 d         -13.754 206.807 111.292  0.00  0.00     0.083 A 
ATOM     13  C18  11 d         -13.898 206.734 112.701  0.00  0.00    -0.015 A 
ATOM     14  C22  11 d         -14.823 206.437 110.459  0.00  0.00     0.038 A 
ATOM     15  C19  11 d         -15.104 206.210 113.226  0.00  0.00     0.011 A 
ATOM     16  C20  11 d         -16.162 205.843 112.384  0.00  0.00     0.001 A 
ATOM     17  C21  11 d         -16.026 205.967 110.999  0.00  0.00     0.003 A 
ATOM     18  C24  11 d          -9.157 208.348 111.528  0.00  0.00     0.003 A 
ATOM     19  C25  11 d          -9.174 208.295 112.926  0.00  0.00     0.001 A 
ENDBRANCH   5   6
ENDBRANCH   1   5
BRANCH   3  20
ATOM     20  C2   11 d         -13.131 207.531 118.356  0.00  0.00     0.149 C 
BRANCH  20  21
ATOM     21  C3   11 d         -13.042 206.028 118.643  0.00  0.00     0.195 C 
BRANCH  21  22
ATOM     22  O2   11 d         -14.378 205.500 118.872  0.00  0.00    -0.349 OA
BRANCH  22  23
ATOM     23  C4   11 d         -14.449 204.872 120.148  0.00  0.00     0.075 A 
ATOM     24  C5   11 d         -15.480 203.944 120.447  0.00  0.00    -0.021 A 
ATOM     25  C6   11 d         -15.541 203.397 121.750  0.00  0.00     0.010 A 
ATOM     26  C7   11 d         -14.615 203.775 122.733  0.00  0.00     0.001 A 
ATOM     27  C8   11 d         -13.624 204.719 122.436  0.00  0.00     0.003 A 
ATOM     28  C9   11 d         -13.552 205.275 121.153  0.00  0.00     0.037 A 
BRANCH  24  29
ATOM     29  C10  11 d         -16.543 203.588 119.415  0.00  0.00     0.013 C 
ATOM     30  C11  11 d         -17.946 203.484 120.034  0.00  0.00     0.015 C 
ATOM     31  C12  11 d         -16.165 202.314 118.652  0.00  0.00     0.015 C 
ENDBRANCH  24  29
ENDBRANCH  22  23
ENDBRANCH  21  22
ENDBRANCH  20  21
ENDBRANCH   3  20
TORSDOF 7
ENDMDL
