MODEL 1
REMARK VINA RESULT:      -9.5      0.000      0.000
REMARK  1 active torsions:
REMARK  status: ('A' for Active; 'I' for Inactive)
REMARK    1  A    between atoms: C14_14  and  N1_15 
ROOT
ATOM      1  C1   11 d         -10.328 208.438 113.447  0.00  0.00    -0.006 C 
ATOM      2  C2   11 d         -11.321 207.327 113.133  0.00  0.00    -0.006 C 
ATOM      3  C3   11 d         -11.615 207.620 111.656  0.00  0.00    -0.009 C 
ATOM      4  C4   11 d         -12.394 206.450 111.035  0.00  0.00     0.010 C 
ATOM      5  C5   11 d         -13.708 206.166 111.818  0.00  0.00    -0.010 C 
ATOM      6  C6   11 d         -13.482 206.099 113.354  0.00  0.00     0.005 C 
ATOM      7  C7   11 d         -12.633 207.256 113.921  0.00  0.00     0.006 C 
ATOM      8  C8   11 d         -14.816 207.194 111.487  0.00  0.00    -0.010 A 
ATOM      9  C9   11 d         -16.284 206.803 111.545  0.00  0.00     0.005 A 
ATOM     10  C10  11 d         -15.560 206.854 110.204  0.00  0.00     0.005 A 
ATOM     11  C11  11 d         -10.259 208.018 111.045  0.00  0.00     0.010 C 
ATOM     12  C12  11 d          -9.362 208.274 112.265  0.00  0.00    -0.008 C 
ATOM     13  C13  11 d          -8.374 209.451 112.230  0.00  0.00     0.036 C 
ATOM     14  C14  11 d          -7.538 209.476 113.550  0.00  0.00     0.156 C 
ATOM     15  C15  11 d          -8.502 209.516 114.779  0.00  0.00     0.032 C 
ATOM     16  C16  11 d          -9.556 208.387 114.771  0.00  0.00     0.007 C 
ENDROOT
BRANCH  14  17
ATOM     17  N1   11 d          -6.517 208.470 113.635  0.00  0.00    -0.151 N 
ATOM     18  O1   11 d          -6.185 208.093 114.664  0.00  0.00    -0.536 OA
ATOM     19  O2   11 d          -5.705 208.321 112.682  0.00  0.00    -0.536 OA
ENDBRANCH  14  17
TORSDOF 1
ENDMDL
MODEL 2
REMARK VINA RESULT:      -9.5      4.397      6.845
REMARK  1 active torsions:
REMARK  status: ('A' for Active; 'I' for Inactive)
REMARK    1  A    between atoms: C14_14  and  N1_15 
ROOT
ATOM      1  C1   11 d         -12.573 206.658 113.089  0.00  0.00    -0.006 C 
ATOM      2  C2   11 d         -11.597 207.826 113.130  0.00  0.00    -0.006 C 
ATOM      3  C3   11 d         -10.750 207.531 111.885  0.00  0.00    -0.009 C 
ATOM      4  C4   11 d          -9.860 208.741 111.559  0.00  0.00     0.010 C 
ATOM      5  C5   11 d          -8.958 209.122 112.768  0.00  0.00    -0.010 C 
ATOM      6  C6   11 d          -9.752 209.197 114.102  0.00  0.00     0.005 C 
ATOM      7  C7   11 d         -10.687 207.995 114.350  0.00  0.00     0.006 C 
ATOM      8  C8   11 d          -7.753 208.164 112.920  0.00  0.00    -0.010 A 
ATOM      9  C9   11 d          -6.440 208.652 113.512  0.00  0.00     0.005 A 
ATOM     10  C10  11 d          -6.598 208.533 112.000  0.00  0.00     0.005 A 
ATOM     11  C11  11 d         -11.749 207.036 110.824  0.00  0.00     0.010 C 
ATOM     12  C12  11 d         -13.026 206.740 111.624  0.00  0.00    -0.008 C 
ATOM     13  C13  11 d         -13.860 205.500 111.265  0.00  0.00     0.036 C 
ATOM     14  C14  11 d         -15.132 205.440 112.171  0.00  0.00     0.156 C 
ATOM     15  C15  11 d         -14.704 205.481 113.673  0.00  0.00     0.032 C 
ATOM     16  C16  11 d         -13.790 206.677 114.021  0.00  0.00     0.007 C 
ENDROOT
BRANCH  14  17
ATOM     17  N1   11 d         -16.162 206.378 111.826  0.00  0.00    -0.151 N 
ATOM     18  O1   11 d         -17.110 206.431 112.466  0.00  0.00    -0.536 OA
ATOM     19  O2   11 d         -16.246 206.808 110.643  0.00  0.00    -0.536 OA
ENDBRANCH  14  17
TORSDOF 1
ENDMDL
MODEL 3
REMARK VINA RESULT:      -8.6      2.609      3.491
REMARK  1 active torsions:
REMARK  status: ('A' for Active; 'I' for Inactive)
REMARK    1  A    between atoms: C14_14  and  N1_15 
ROOT
ATOM      1  C1   11 d         -12.388 207.447 115.739  0.00  0.00    -0.006 C 
ATOM      2  C2   11 d         -12.788 206.568 114.561  0.00  0.00    -0.006 C 
ATOM      3  C3   11 d         -12.307 207.434 113.388  0.00  0.00    -0.009 C 
ATOM      4  C4   11 d         -12.355 206.621 112.084  0.00  0.00     0.010 C 
ATOM      5  C5   11 d         -13.783 206.064 111.817  0.00  0.00    -0.010 C 
ATOM      6  C6   11 d         -14.400 205.383 113.070  0.00  0.00     0.005 C 
ATOM      7  C7   11 d         -14.263 206.204 114.369  0.00  0.00     0.006 C 
ATOM      8  C8   11 d         -14.740 207.153 111.277  0.00  0.00    -0.010 A 
ATOM      9  C9   11 d         -15.885 206.790 110.344  0.00  0.00     0.005 A 
ATOM     10  C10  11 d         -14.591 207.366 109.778  0.00  0.00     0.005 A 
ATOM     11  C11  11 d         -10.963 208.026 113.847  0.00  0.00     0.010 C 
ATOM     12  C12  11 d         -10.934 207.758 115.359  0.00  0.00    -0.008 C 
ATOM     13  C13  11 d         -10.369 208.838 116.295  0.00  0.00     0.036 C 
ATOM     14  C14  11 d         -10.392 208.320 117.770  0.00  0.00     0.156 C 
ATOM     15  C15  11 d         -11.842 207.876 118.144  0.00  0.00     0.032 C 
ATOM     16  C16  11 d         -12.450 206.859 117.154  0.00  0.00     0.007 C 
ENDROOT
BRANCH  14  17
ATOM     17  N1   11 d          -9.380 207.351 118.084  0.00  0.00    -0.151 N 
ATOM     18  O1   11 d          -9.514 206.676 118.999  0.00  0.00    -0.536 OA
ATOM     19  O2   11 d          -8.202 207.519 117.664  0.00  0.00    -0.536 OA
ENDBRANCH  14  17
TORSDOF 1
ENDMDL
MODEL 4
REMARK VINA RESULT:      -8.5      4.102      6.677
REMARK  1 active torsions:
REMARK  status: ('A' for Active; 'I' for Inactive)
REMARK    1  A    between atoms: C14_14  and  N1_15 
ROOT
ATOM      1  C1   11 d         -11.973 207.020 114.205  0.00  0.00    -0.006 C 
ATOM      2  C2   11 d         -10.996 208.135 113.855  0.00  0.00    -0.006 C 
ATOM      3  C3   11 d         -10.442 207.617 112.521  0.00  0.00    -0.009 C 
ATOM      4  C4   11 d          -9.627 208.721 111.829  0.00  0.00     0.010 C 
ATOM      5  C5   11 d          -8.480 209.236 112.746  0.00  0.00    -0.010 C 
ATOM      6  C6   11 d          -8.965 209.547 114.188  0.00  0.00     0.005 C 
ATOM      7  C7   11 d          -9.841 208.442 114.814  0.00  0.00     0.006 C 
ATOM      8  C8   11 d          -7.283 208.256 112.787  0.00  0.00    -0.010 A 
ATOM      9  C9   11 d          -5.867 208.764 113.004  0.00  0.00     0.005 A 
ATOM     10  C10  11 d          -6.350 208.429 111.597  0.00  0.00     0.005 A 
ATOM     11  C11  11 d         -11.653 207.016 111.786  0.00  0.00     0.010 C 
ATOM     12  C12  11 d         -12.731 206.904 112.875  0.00  0.00    -0.008 C 
ATOM     13  C13  11 d         -13.640 205.665 112.898  0.00  0.00     0.036 C 
ATOM     14  C14  11 d         -14.686 205.801 114.051  0.00  0.00     0.156 C 
ATOM     15  C15  11 d         -13.943 206.047 115.404  0.00  0.00     0.032 C 
ATOM     16  C16  11 d         -12.960 207.236 115.358  0.00  0.00     0.007 C 
ENDROOT
BRANCH  14  17
ATOM     17  N1   11 d         -15.754 206.724 113.790  0.00  0.00    -0.151 N 
ATOM     18  O1   11 d         -16.437 206.551 112.887  0.00  0.00    -0.536 OA
ATOM     19  O2   11 d         -15.687 207.901 114.239  0.00  0.00    -0.536 OA
ENDBRANCH  14  17
TORSDOF 1
ENDMDL
MODEL 5
REMARK VINA RESULT:      -8.2      4.418      6.840
REMARK  1 active torsions:
REMARK  status: ('A' for Active; 'I' for Inactive)
REMARK    1  A    between atoms: C14_14  and  N1_15 
ROOT
ATOM      1  C1   11 d         -13.169 206.138 113.654  0.00  0.00    -0.006 C 
ATOM      2  C2   11 d         -12.893 207.002 114.877  0.00  0.00    -0.006 C 
ATOM      3  C3   11 d         -11.462 207.467 114.578  0.00  0.00    -0.009 C 
ATOM      4  C4   11 d         -11.061 208.587 115.551  0.00  0.00     0.010 C 
ATOM      5  C5   11 d         -11.198 208.126 117.031  0.00  0.00    -0.010 C 
ATOM      6  C6   11 d         -12.557 207.428 117.313  0.00  0.00     0.005 C 
ATOM      7  C7   11 d         -12.952 206.363 116.269  0.00  0.00     0.006 C 
ATOM      8  C8   11 d         -10.029 207.210 117.465  0.00  0.00    -0.010 A 
ATOM      9  C9   11 d          -9.556 207.182 118.910  0.00  0.00     0.005 A 
ATOM     10  C10  11 d          -8.793 207.998 117.872  0.00  0.00     0.005 A 
ATOM     11  C11  11 d         -11.438 207.753 113.066  0.00  0.00     0.010 C 
ATOM     12  C12  11 d         -12.726 207.101 112.543  0.00  0.00    -0.008 C 
ATOM     13  C13  11 d         -12.694 206.364 111.195  0.00  0.00     0.036 C 
ATOM     14  C14  11 d         -14.124 205.836 110.849  0.00  0.00     0.156 C 
ATOM     15  C15  11 d         -14.652 204.951 112.023  0.00  0.00     0.032 C 
ATOM     16  C16  11 d         -14.602 205.656 113.396  0.00  0.00     0.007 C 
ENDROOT
BRANCH  14  17
ATOM     17  N1   11 d         -15.047 206.844 110.409  0.00  0.00    -0.151 N 
ATOM     18  O1   11 d         -16.172 206.672 110.545  0.00  0.00    -0.536 OA
ATOM     19  O2   11 d         -14.698 207.667 109.520  0.00  0.00    -0.536 OA
ENDBRANCH  14  17
TORSDOF 1
ENDMDL
MODEL 6
REMARK VINA RESULT:      -7.2      1.932      3.188
REMARK  1 active torsions:
REMARK  status: ('A' for Active; 'I' for Inactive)
REMARK    1  A    between atoms: C14_14  and  N1_15 
ROOT
ATOM      1  C1   11 d          -8.598 208.032 113.824  0.00  0.00    -0.006 C 
ATOM      2  C2   11 d         -10.056 208.260 113.447  0.00  0.00    -0.006 C 
ATOM      3  C3   11 d         -10.733 208.075 114.812  0.00  0.00    -0.009 C 
ATOM      4  C4   11 d         -12.198 208.533 114.737  0.00  0.00     0.010 C 
ATOM      5  C5   11 d         -12.972 207.770 113.624  0.00  0.00    -0.010 C 
ATOM      6  C6   11 d         -12.197 207.733 112.278  0.00  0.00     0.005 C 
ATOM      7  C7   11 d         -10.712 207.338 112.413  0.00  0.00     0.006 C 
ATOM      8  C8   11 d         -13.351 206.334 114.059  0.00  0.00    -0.010 A 
ATOM      9  C9   11 d         -14.602 205.661 113.517  0.00  0.00     0.005 A 
ATOM     10  C10  11 d         -14.617 206.298 114.902  0.00  0.00     0.005 A 
ATOM     11  C11  11 d          -9.793 208.754 115.824  0.00  0.00     0.010 C 
ATOM     12  C12  11 d          -8.489 208.963 115.040  0.00  0.00    -0.008 C 
ATOM     13  C13  11 d          -7.147 208.735 115.753  0.00  0.00     0.036 C 
ATOM     14  C14  11 d          -5.970 209.060 114.776  0.00  0.00     0.156 C 
ATOM     15  C15  11 d          -6.127 208.216 113.472  0.00  0.00     0.032 C 
ATOM     16  C16  11 d          -7.508 208.371 112.800  0.00  0.00     0.007 C 
ENDROOT
BRANCH  14  17
ATOM     17  N1   11 d          -5.746 210.460 114.549  0.00  0.00    -0.151 N 
ATOM     18  O1   11 d          -4.904 210.786 113.845  0.00  0.00    -0.536 OA
ATOM     19  O2   11 d          -6.137 211.303 115.402  0.00  0.00    -0.536 OA
ENDBRANCH  14  17
TORSDOF 1
ENDMDL
MODEL 7
REMARK VINA RESULT:      -7.2      1.940      2.693
REMARK  1 active torsions:
REMARK  status: ('A' for Active; 'I' for Inactive)
REMARK    1  A    between atoms: C14_14  and  N1_15 
ROOT
ATOM      1  C1   11 d          -8.574 209.157 114.524  0.00  0.00    -0.006 C 
ATOM      2  C2   11 d          -9.732 208.274 114.970  0.00  0.00    -0.006 C 
ATOM      3  C3   11 d         -10.501 208.128 113.651  0.00  0.00    -0.009 C 
ATOM      4  C4   11 d         -11.577 207.039 113.789  0.00  0.00     0.010 C 
ATOM      5  C5   11 d         -12.545 207.347 114.968  0.00  0.00    -0.010 C 
ATOM      6  C6   11 d         -11.793 207.735 116.270  0.00  0.00     0.005 C 
ATOM      7  C7   11 d         -10.673 208.777 116.069  0.00  0.00     0.006 C 
ATOM      8  C8   11 d         -13.575 208.442 114.602  0.00  0.00    -0.010 A 
ATOM      9  C9   11 d         -14.959 208.451 115.233  0.00  0.00     0.005 A 
ATOM     10  C10  11 d         -14.763 207.887 113.830  0.00  0.00     0.005 A 
ATOM     11  C11  11 d          -9.420 207.971 112.567  0.00  0.00     0.010 C 
ATOM     12  C12  11 d          -8.121 208.391 113.272  0.00  0.00    -0.008 C 
ATOM     13  C13  11 d          -7.088 209.222 112.497  0.00  0.00     0.036 C 
ATOM     14  C14  11 d          -5.836 209.479 113.397  0.00  0.00     0.156 C 
ATOM     15  C15  11 d          -6.284 210.147 114.736  0.00  0.00     0.032 C 
ATOM     16  C16  11 d          -7.389 209.361 115.476  0.00  0.00     0.007 C 
ENDROOT
BRANCH  14  17
ATOM     17  N1   11 d          -4.972 208.345 113.564  0.00  0.00    -0.151 N 
ATOM     18  O1   11 d          -4.515 208.134 114.593  0.00  0.00    -0.536 OA
ATOM     19  O2   11 d          -4.377 207.859 112.564  0.00  0.00    -0.536 OA
ENDBRANCH  14  17
TORSDOF 1
ENDMDL
MODEL 8
REMARK VINA RESULT:      -7.0      5.353      6.673
REMARK  1 active torsions:
REMARK  status: ('A' for Active; 'I' for Inactive)
REMARK    1  A    between atoms: C14_14  and  N1_15 
ROOT
ATOM      1  C1   11 d         -13.399 206.469 116.689  0.00  0.00    -0.006 C 
ATOM      2  C2   11 d         -14.074 207.059 115.458  0.00  0.00    -0.006 C 
ATOM      3  C3   11 d         -14.581 205.783 114.774  0.00  0.00    -0.009 C 
ATOM      4  C4   11 d         -15.546 206.148 113.635  0.00  0.00     0.010 C 
ATOM      5  C5   11 d         -14.872 207.101 112.606  0.00  0.00    -0.010 C 
ATOM      6  C6   11 d         -14.138 208.289 113.287  0.00  0.00     0.005 C 
ATOM      7  C7   11 d         -13.238 207.881 114.472  0.00  0.00     0.006 C 
ATOM      8  C8   11 d         -13.904 206.348 111.663  0.00  0.00    -0.010 A 
ATOM      9  C9   11 d         -13.665 206.834 110.242  0.00  0.00     0.005 A 
ATOM     10  C10  11 d         -14.627 205.679 110.503  0.00  0.00     0.005 A 
ATOM     11  C11  11 d         -15.086 204.885 115.917  0.00  0.00     0.010 C 
ATOM     12  C12  11 d         -14.515 205.538 117.185  0.00  0.00    -0.008 C 
ATOM     13  C13  11 d         -13.984 204.640 118.312  0.00  0.00     0.036 C 
ATOM     14  C14  11 d         -13.511 205.523 119.511  0.00  0.00     0.156 C 
ATOM     15  C15  11 d         -12.462 206.566 119.009  0.00  0.00     0.032 C 
ATOM     16  C16  11 d         -12.958 207.411 117.815  0.00  0.00     0.007 C 
ENDROOT
BRANCH  14  17
ATOM     17  N1   11 d         -14.570 206.086 120.300  0.00  0.00    -0.151 N 
ATOM     18  O1   11 d         -14.341 206.956 121.008  0.00  0.00    -0.536 OA
ATOM     19  O2   11 d         -15.595 205.396 120.554  0.00  0.00    -0.536 OA
ENDBRANCH  14  17
TORSDOF 1
ENDMDL
MODEL 9
REMARK VINA RESULT:      -6.9      3.867      7.138
REMARK  1 active torsions:
REMARK  status: ('A' for Active; 'I' for Inactive)
REMARK    1  A    between atoms: C14_14  and  N1_15 
ROOT
ATOM      1  C1   11 d         -11.193 208.239 113.661  0.00  0.00    -0.006 C 
ATOM      2  C2   11 d          -9.727 207.994 113.991  0.00  0.00    -0.006 C 
ATOM      3  C3   11 d          -9.576 208.848 115.257  0.00  0.00    -0.009 C 
ATOM      4  C4   11 d          -8.233 208.539 115.939  0.00  0.00     0.010 C 
ATOM      5  C5   11 d          -7.039 208.767 114.968  0.00  0.00    -0.010 C 
ATOM      6  C6   11 d          -7.268 208.109 113.579  0.00  0.00     0.005 C 
ATOM      7  C7   11 d          -8.657 208.387 112.967  0.00  0.00     0.006 C 
ATOM      8  C8   11 d          -6.708 210.269 114.796  0.00  0.00    -0.010 A 
ATOM      9  C9   11 d          -5.287 210.724 114.502  0.00  0.00     0.005 A 
ATOM     10  C10  11 d          -5.835 210.803 115.923  0.00  0.00     0.005 A 
ATOM     11  C11  11 d         -10.878 208.633 116.048  0.00  0.00     0.010 C 
ATOM     12  C12  11 d         -11.824 207.970 115.035  0.00  0.00    -0.008 C 
ATOM     13  C13  11 d         -13.305 208.381 115.020  0.00  0.00     0.036 C 
ATOM     14  C14  11 d         -14.074 207.538 113.951  0.00  0.00     0.156 C 
ATOM     15  C15  11 d         -13.376 207.695 112.562  0.00  0.00     0.032 C 
ATOM     16  C16  11 d         -11.866 207.370 112.592  0.00  0.00     0.007 C 
ENDROOT
BRANCH  14  17
ATOM     17  N1   11 d         -14.333 206.178 114.331  0.00  0.00    -0.151 N 
ATOM     18  O1   11 d         -14.657 205.425 113.531  0.00  0.00    -0.536 OA
ATOM     19  O2   11 d         -14.634 205.909 115.526  0.00  0.00    -0.536 OA
ENDBRANCH  14  17
TORSDOF 1
ENDMDL
