MODEL 1
REMARK VINA RESULT:      -6.4      0.000      0.000
REMARK  3 active torsions:
REMARK  status: ('A' for Active; 'I' for Inactive)
REMARK    1  A    between atoms: C2_3  and  N2_9 
REMARK    2  A    between atoms: N2_9  and  C8_10 
REMARK    3  A    between atoms: C8_10  and  C9_11 
ROOT
ATOM      1  N1   11 d         -11.219 206.585 114.949  0.00  0.00    -0.069 N 
ATOM      2  C1   11 d         -12.445 205.775 115.326  0.00  0.00     0.268 C 
ATOM      3  C2   11 d         -13.774 206.455 114.826  0.00  0.00     0.215 C 
ATOM      4  C3   11 d         -13.367 207.685 113.945  0.00  0.00     0.021 C 
ATOM      5  C4   11 d         -12.391 207.251 112.820  0.00  0.00     0.034 C 
ATOM      6  C5   11 d         -11.112 206.629 113.444  0.00  0.00     0.235 C 
ATOM      7  C6   11 d         -12.603 208.688 114.849  0.00  0.00     0.034 C 
ATOM      8  C7   11 d         -11.363 207.993 115.475  0.00  0.00     0.235 C 
ATOM      9  H1   11 d         -10.331 206.136 115.363  0.00  0.00     0.280 HD
ENDROOT
BRANCH   3  10
ATOM     10  N2   11 d         -14.743 205.488 114.179  0.00  0.00    -0.067 N 
ATOM     11  H14  11 d         -14.251 204.925 113.410  0.00  0.00     0.277 HD
ATOM     12  H15  11 d         -15.065 204.775 114.916  0.00  0.00     0.277 HD
BRANCH  10  13
ATOM     13  C8   11 d         -15.973 206.128 113.604  0.00  0.00     0.264 C 
BRANCH  13  14
ATOM     14  C9   11 d         -16.233 205.645 112.168  0.00  0.00     0.147 C 
ATOM     15  O1   11 d         -15.009 205.043 111.690  0.00  0.00    -0.384 OA
ATOM     16  C10  11 d         -14.645 205.740 110.472  0.00  0.00     0.168 C 
ATOM     17  C11  11 d         -15.322 207.095 110.517  0.00  0.00     0.029 C 
ATOM     18  C12  11 d         -16.628 206.760 111.197  0.00  0.00     0.036 C 
ENDBRANCH  13  14
ENDBRANCH  10  13
ENDBRANCH   3  10
TORSDOF 3
ENDMDL
MODEL 2
REMARK VINA RESULT:      -6.1      2.209      4.723
REMARK  3 active torsions:
REMARK  status: ('A' for Active; 'I' for Inactive)
REMARK    1  A    between atoms: C2_3  and  N2_9 
REMARK    2  A    between atoms: N2_9  and  C8_10 
REMARK    3  A    between atoms: C8_10  and  C9_11 
ROOT
ATOM      1  N1   11 d         -13.480 205.886 111.198  0.00  0.00    -0.069 N 
ATOM      2  C1   11 d         -13.443 206.586 112.542  0.00  0.00     0.268 C 
ATOM      3  C2   11 d         -14.791 207.340 112.848  0.00  0.00     0.215 C 
ATOM      4  C3   11 d         -15.801 206.972 111.709  0.00  0.00     0.021 C 
ATOM      5  C4   11 d         -15.930 205.433 111.570  0.00  0.00     0.034 C 
ATOM      6  C5   11 d         -14.544 204.816 111.238  0.00  0.00     0.235 C 
ATOM      7  C6   11 d         -15.225 207.504 110.369  0.00  0.00     0.034 C 
ATOM      8  C7   11 d         -13.823 206.884 110.118  0.00  0.00     0.235 C 
ATOM      9  H1   11 d         -12.523 205.438 110.982  0.00  0.00     0.280 HD
ENDROOT
BRANCH   3  10
ATOM     10  N2   11 d         -15.299 207.126 114.258  0.00  0.00    -0.067 N 
ATOM     11  H14  11 d         -15.061 207.972 114.873  0.00  0.00     0.277 HD
ATOM     12  H15  11 d         -16.371 207.061 114.235  0.00  0.00     0.277 HD
BRANCH  10  13
ATOM     13  C8   11 d         -14.787 205.881 114.924  0.00  0.00     0.264 C 
BRANCH  13  14
ATOM     14  C9   11 d         -14.014 206.214 116.210  0.00  0.00     0.147 C 
ATOM     15  O1   11 d         -13.597 207.595 116.114  0.00  0.00    -0.384 OA
ATOM     16  C10  11 d         -12.156 207.610 116.269  0.00  0.00     0.168 C 
ATOM     17  C11  11 d         -11.656 206.227 115.905  0.00  0.00     0.029 C 
ATOM     18  C12  11 d         -12.769 205.353 116.430  0.00  0.00     0.036 C 
ENDBRANCH  13  14
ENDBRANCH  10  13
ENDBRANCH   3  10
TORSDOF 3
ENDMDL
MODEL 3
REMARK VINA RESULT:      -6.1      1.008      1.739
REMARK  3 active torsions:
REMARK  status: ('A' for Active; 'I' for Inactive)
REMARK    1  A    between atoms: C2_3  and  N2_9 
REMARK    2  A    between atoms: N2_9  and  C8_10 
REMARK    3  A    between atoms: C8_10  and  C9_11 
ROOT
ATOM      1  N1   11 d         -12.646 208.143 116.062  0.00  0.00    -0.069 N 
ATOM      2  C1   11 d         -13.893 207.811 115.265  0.00  0.00     0.268 C 
ATOM      3  C2   11 d         -13.614 206.718 114.167  0.00  0.00     0.215 C 
ATOM      4  C3   11 d         -12.148 206.210 114.376  0.00  0.00     0.021 C 
ATOM      5  C4   11 d         -11.937 205.736 115.837  0.00  0.00     0.034 C 
ATOM      6  C5   11 d         -12.210 206.911 116.816  0.00  0.00     0.235 C 
ATOM      7  C6   11 d         -11.189 207.408 114.142  0.00  0.00     0.034 C 
ATOM      8  C7   11 d         -11.543 208.562 115.120  0.00  0.00     0.235 C 
ATOM      9  H1   11 d         -12.847 208.942 116.757  0.00  0.00     0.280 HD
ENDROOT
BRANCH   3  10
ATOM     10  N2   11 d         -14.672 205.636 114.106  0.00  0.00    -0.067 N 
ATOM     11  H14  11 d         -14.330 204.814 113.507  0.00  0.00     0.277 HD
ATOM     12  H15  11 d         -14.826 205.245 115.096  0.00  0.00     0.277 HD
BRANCH  10  13
ATOM     13  C8   11 d         -16.006 206.095 113.591  0.00  0.00     0.264 C 
BRANCH  13  14
ATOM     14  C9   11 d         -16.235 205.627 112.145  0.00  0.00     0.147 C 
ATOM     15  O1   11 d         -15.036 204.940 111.721  0.00  0.00    -0.384 OA
ATOM     16  C10  11 d         -14.572 205.606 110.521  0.00  0.00     0.168 C 
ATOM     17  C11  11 d         -15.154 207.005 110.536  0.00  0.00     0.029 C 
ATOM     18  C12  11 d         -16.509 206.763 111.158  0.00  0.00     0.036 C 
ENDBRANCH  13  14
ENDBRANCH  10  13
ENDBRANCH   3  10
TORSDOF 3
ENDMDL
MODEL 4
REMARK VINA RESULT:      -6.0      1.631      2.866
REMARK  3 active torsions:
REMARK  status: ('A' for Active; 'I' for Inactive)
REMARK    1  A    between atoms: C2_3  and  N2_9 
REMARK    2  A    between atoms: N2_9  and  C8_10 
REMARK    3  A    between atoms: C8_10  and  C9_11 
ROOT
ATOM      1  N1   11 d         -12.753 207.978 116.486  0.00  0.00    -0.069 N 
ATOM      2  C1   11 d         -12.089 208.381 115.184  0.00  0.00     0.268 C 
ATOM      3  C2   11 d         -12.041 207.190 114.156  0.00  0.00     0.215 C 
ATOM      4  C3   11 d         -12.858 206.006 114.775  0.00  0.00     0.021 C 
ATOM      5  C4   11 d         -14.284 206.473 115.167  0.00  0.00     0.034 C 
ATOM      6  C5   11 d         -14.193 207.624 116.206  0.00  0.00     0.235 C 
ATOM      7  C6   11 d         -12.147 205.565 116.082  0.00  0.00     0.034 C 
ATOM      8  C7   11 d         -12.050 206.770 117.058  0.00  0.00     0.235 C 
ATOM      9  H1   11 d         -12.709 208.788 117.196  0.00  0.00     0.280 HD
ENDROOT
BRANCH   3  10
ATOM     10  N2   11 d         -12.438 207.586 112.750  0.00  0.00    -0.067 N 
ATOM     11  H14  11 d         -13.382 208.098 112.759  0.00  0.00     0.277 HD
ATOM     12  H15  11 d         -11.718 208.288 112.370  0.00  0.00     0.277 HD
BRANCH  10  13
ATOM     13  C8   11 d         -12.512 206.445 111.776  0.00  0.00     0.264 C 
BRANCH  13  14
ATOM     14  C9   11 d         -13.779 206.532 110.911  0.00  0.00     0.147 C 
ATOM     15  O1   11 d         -14.654 207.504 111.528  0.00  0.00    -0.384 OA
ATOM     16  C10  11 d         -15.914 206.834 111.783  0.00  0.00     0.168 C 
ATOM     17  C11  11 d         -15.623 205.348 111.836  0.00  0.00     0.029 C 
ATOM     18  C12  11 d         -14.543 205.212 110.790  0.00  0.00     0.036 C 
ENDBRANCH  13  14
ENDBRANCH  10  13
ENDBRANCH   3  10
TORSDOF 3
ENDMDL
MODEL 5
REMARK VINA RESULT:      -6.0      2.114      4.795
REMARK  3 active torsions:
REMARK  status: ('A' for Active; 'I' for Inactive)
REMARK    1  A    between atoms: C2_3  and  N2_9 
REMARK    2  A    between atoms: N2_9  and  C8_10 
REMARK    3  A    between atoms: C8_10  and  C9_11 
ROOT
ATOM      1  N1   11 d         -15.055 207.462 111.150  0.00  0.00    -0.069 N 
ATOM      2  C1   11 d         -14.661 207.640 112.603  0.00  0.00     0.268 C 
ATOM      3  C2   11 d         -14.998 206.365 113.463  0.00  0.00     0.215 C 
ATOM      4  C3   11 d         -15.490 205.253 112.476  0.00  0.00     0.021 C 
ATOM      5  C4   11 d         -14.450 205.024 111.349  0.00  0.00     0.034 C 
ATOM      6  C5   11 d         -14.232 206.344 110.558  0.00  0.00     0.235 C 
ATOM      7  C6   11 d         -16.792 205.756 111.799  0.00  0.00     0.034 C 
ATOM      8  C7   11 d         -16.518 207.097 111.065  0.00  0.00     0.235 C 
ATOM      9  H1   11 d         -14.879 208.372 110.600  0.00  0.00     0.280 HD
ENDROOT
BRANCH   3  10
ATOM     10  N2   11 d         -13.882 205.953 114.399  0.00  0.00    -0.067 N 
ATOM     11  H14  11 d         -14.279 205.426 115.245  0.00  0.00     0.277 HD
ATOM     12  H15  11 d         -13.238 205.260 113.888  0.00  0.00     0.277 HD
BRANCH  10  13
ATOM     13  C8   11 d         -13.026 207.086 114.888  0.00  0.00     0.264 C 
BRANCH  13  14
ATOM     14  C9   11 d         -11.540 206.833 114.587  0.00  0.00     0.147 C 
ATOM     15  O1   11 d         -10.840 208.078 114.805  0.00  0.00    -0.384 OA
ATOM     16  C10  11 d         -10.149 208.394 113.571  0.00  0.00     0.168 C 
ATOM     17  C11  11 d         -10.866 207.654 112.459  0.00  0.00     0.029 C 
ATOM     18  C12  11 d         -11.264 206.373 113.154  0.00  0.00     0.036 C 
ENDBRANCH  13  14
ENDBRANCH  10  13
ENDBRANCH   3  10
TORSDOF 3
ENDMDL
MODEL 6
REMARK VINA RESULT:      -6.0      2.940      5.824
REMARK  3 active torsions:
REMARK  status: ('A' for Active; 'I' for Inactive)
REMARK    1  A    between atoms: C2_3  and  N2_9 
REMARK    2  A    between atoms: N2_9  and  C8_10 
REMARK    3  A    between atoms: C8_10  and  C9_11 
ROOT
ATOM      1  N1   11 d         -15.273 207.204 112.349  0.00  0.00    -0.069 N 
ATOM      2  C1   11 d         -13.871 207.435 112.879  0.00  0.00     0.268 C 
ATOM      3  C2   11 d         -12.818 206.494 112.184  0.00  0.00     0.215 C 
ATOM      4  C3   11 d         -13.561 205.729 111.037  0.00  0.00     0.021 C 
ATOM      5  C4   11 d         -14.272 206.727 110.086  0.00  0.00     0.034 C 
ATOM      6  C5   11 d         -15.304 207.570 110.885  0.00  0.00     0.235 C 
ATOM      7  C6   11 d         -14.665 204.851 111.684  0.00  0.00     0.034 C 
ATOM      8  C7   11 d         -15.636 205.746 112.502  0.00  0.00     0.235 C 
ATOM      9  H1   11 d         -15.982 207.809 112.890  0.00  0.00     0.280 HD
ENDROOT
BRANCH   3  10
ATOM     10  N2   11 d         -11.548 207.206 111.770  0.00  0.00    -0.067 N 
ATOM     11  H14  11 d         -11.003 206.615 111.060  0.00  0.00     0.277 HD
ATOM     12  H15  11 d         -11.810 208.118 111.265  0.00  0.00     0.277 HD
BRANCH  10  13
ATOM     13  C8   11 d         -10.635 207.567 112.907  0.00  0.00     0.264 C 
BRANCH  13  14
ATOM     14  C9   11 d          -9.742 208.764 112.546  0.00  0.00     0.147 C 
ATOM     15  O1   11 d          -8.795 208.309 111.553  0.00  0.00    -0.384 OA
ATOM     16  C10  11 d          -7.472 208.580 112.079  0.00  0.00     0.168 C 
ATOM     17  C11  11 d          -7.604 208.680 113.585  0.00  0.00     0.029 C 
ATOM     18  C12  11 d          -8.957 209.336 113.728  0.00  0.00     0.036 C 
ENDBRANCH  13  14
ENDBRANCH  10  13
ENDBRANCH   3  10
TORSDOF 3
ENDMDL
MODEL 7
REMARK VINA RESULT:      -5.7      2.429      5.532
REMARK  3 active torsions:
REMARK  status: ('A' for Active; 'I' for Inactive)
REMARK    1  A    between atoms: C2_3  and  N2_9 
REMARK    2  A    between atoms: N2_9  and  C8_10 
REMARK    3  A    between atoms: C8_10  and  C9_11 
ROOT
ATOM      1  N1   11 d         -15.881 206.971 111.798  0.00  0.00    -0.069 N 
ATOM      2  C1   11 d         -14.811 207.346 112.805  0.00  0.00     0.268 C 
ATOM      3  C2   11 d         -13.466 206.568 112.549  0.00  0.00     0.215 C 
ATOM      4  C3   11 d         -13.635 205.769 111.213  0.00  0.00     0.021 C 
ATOM      5  C4   11 d         -14.071 206.714 110.063  0.00  0.00     0.034 C 
ATOM      6  C5   11 d         -15.422 207.392 110.423  0.00  0.00     0.235 C 
ATOM      7  C6   11 d         -14.778 204.738 111.413  0.00  0.00     0.034 C 
ATOM      8  C7   11 d         -16.086 205.475 111.813  0.00  0.00     0.235 C 
ATOM      9  H1   11 d         -16.810 207.463 112.037  0.00  0.00     0.280 HD
ENDROOT
BRANCH   3  10
ATOM     10  N2   11 d         -12.235 207.445 112.628  0.00  0.00    -0.067 N 
ATOM     11  H14  11 d         -11.632 207.323 111.748  0.00  0.00     0.277 HD
ATOM     12  H15  11 d         -12.542 208.475 112.642  0.00  0.00     0.277 HD
BRANCH  10  13
ATOM     13  C8   11 d         -11.379 207.213 113.841  0.00  0.00     0.264 C 
BRANCH  13  14
ATOM     14  C9   11 d         -11.675 208.249 114.937  0.00  0.00     0.147 C 
ATOM     15  O1   11 d         -10.408 208.624 115.525  0.00  0.00    -0.384 OA
ATOM     16  C10  11 d         -10.511 208.362 116.947  0.00  0.00     0.168 C 
ATOM     17  C11  11 d         -11.607 207.331 117.130  0.00  0.00     0.029 C 
ATOM     18  C12  11 d         -12.586 207.734 116.053  0.00  0.00     0.036 C 
ENDBRANCH  13  14
ENDBRANCH  10  13
ENDBRANCH   3  10
TORSDOF 3
ENDMDL
MODEL 8
REMARK VINA RESULT:      -5.6      2.314      5.271
REMARK  3 active torsions:
REMARK  status: ('A' for Active; 'I' for Inactive)
REMARK    1  A    between atoms: C2_3  and  N2_9 
REMARK    2  A    between atoms: N2_9  and  C8_10 
REMARK    3  A    between atoms: C8_10  and  C9_11 
ROOT
ATOM      1  N1   11 d         -16.107 205.592 112.112  0.00  0.00    -0.069 N 
ATOM      2  C1   11 d         -15.545 206.243 113.361  0.00  0.00     0.268 C 
ATOM      3  C2   11 d         -14.195 207.001 113.073  0.00  0.00     0.215 C 
ATOM      4  C3   11 d         -13.962 206.965 111.525  0.00  0.00     0.021 C 
ATOM      5  C4   11 d         -15.198 207.524 110.773  0.00  0.00     0.034 C 
ATOM      6  C5   11 d         -16.451 206.673 111.116  0.00  0.00     0.235 C 
ATOM      7  C6   11 d         -13.802 205.481 111.099  0.00  0.00     0.034 C 
ATOM      8  C7   11 d         -15.067 204.678 111.509  0.00  0.00     0.235 C 
ATOM      9  H1   11 d         -16.990 205.023 112.351  0.00  0.00     0.280 HD
ENDROOT
BRANCH   3  10
ATOM     10  N2   11 d         -14.123 208.373 113.707  0.00  0.00    -0.067 N 
ATOM     11  H14  11 d         -13.567 209.045 113.081  0.00  0.00     0.277 HD
ATOM     12  H15  11 d         -15.117 208.778 113.774  0.00  0.00     0.277 HD
BRANCH  10  13
ATOM     13  C8   11 d         -13.534 208.393 115.088  0.00  0.00     0.264 C 
BRANCH  13  14
ATOM     14  C9   11 d         -12.226 207.589 115.148  0.00  0.00     0.147 C 
ATOM     15  O1   11 d         -11.854 207.477 116.541  0.00  0.00    -0.384 OA
ATOM     16  C10  11 d         -10.518 208.022 116.664  0.00  0.00     0.168 C 
ATOM     17  C11  11 d         -10.307 208.953 115.487  0.00  0.00     0.029 C 
ATOM     18  C12  11 d         -11.062 208.235 114.394  0.00  0.00     0.036 C 
ENDBRANCH  13  14
ENDBRANCH  10  13
ENDBRANCH   3  10
TORSDOF 3
ENDMDL
MODEL 9
REMARK VINA RESULT:      -5.5      3.174      5.797
REMARK  3 active torsions:
REMARK  status: ('A' for Active; 'I' for Inactive)
REMARK    1  A    between atoms: C2_3  and  N2_9 
REMARK    2  A    between atoms: N2_9  and  C8_10 
REMARK    3  A    between atoms: C8_10  and  C9_11 
ROOT
ATOM      1  N1   11 d         -13.476 208.097 116.184  0.00  0.00    -0.069 N 
ATOM      2  C1   11 d         -11.969 207.967 116.077  0.00  0.00     0.268 C 
ATOM      3  C2   11 d         -11.541 207.082 114.847  0.00  0.00     0.215 C 
ATOM      4  C3   11 d         -12.839 206.757 114.032  0.00  0.00     0.021 C 
ATOM      5  C4   11 d         -13.595 208.061 113.667  0.00  0.00     0.034 C 
ATOM      6  C5   11 d         -13.988 208.822 114.963  0.00  0.00     0.235 C 
ATOM      7  C6   11 d         -13.780 205.924 114.943  0.00  0.00     0.034 C 
ATOM      8  C7   11 d         -14.098 206.722 116.238  0.00  0.00     0.235 C 
ATOM      9  H1   11 d         -13.743 208.647 117.071  0.00  0.00     0.280 HD
ENDROOT
BRANCH   3  10
ATOM     10  N2   11 d         -10.402 207.671 114.043  0.00  0.00    -0.067 N 
ATOM     11  H14  11 d          -9.691 206.909 113.789  0.00  0.00     0.277 HD
ATOM     12  H15  11 d         -10.790 208.043 113.112  0.00  0.00     0.277 HD
BRANCH  10  13
ATOM     13  C8   11 d          -9.683 208.805 114.716  0.00  0.00     0.264 C 
BRANCH  13  14
ATOM     14  C9   11 d          -8.821 209.590 113.715  0.00  0.00     0.147 C 
ATOM     15  O1   11 d          -8.897 208.899 112.448  0.00  0.00    -0.384 OA
ATOM     16  C10  11 d          -7.537 208.586 112.058  0.00  0.00     0.168 C 
ATOM     17  C11  11 d          -6.701 208.587 113.322  0.00  0.00     0.029 C 
ATOM     18  C12  11 d          -7.348 209.699 114.112  0.00  0.00     0.036 C 
ENDBRANCH  13  14
ENDBRANCH  10  13
ENDBRANCH   3  10
TORSDOF 3
ENDMDL
MODEL 10
REMARK VINA RESULT:      -5.3      1.741      2.447
REMARK  3 active torsions:
REMARK  status: ('A' for Active; 'I' for Inactive)
REMARK    1  A    between atoms: C2_3  and  N2_9 
REMARK    2  A    between atoms: N2_9  and  C8_10 
REMARK    3  A    between atoms: C8_10  and  C9_11 
ROOT
ATOM      1  N1   11 d         -12.850 206.373 117.763  0.00  0.00    -0.069 N 
ATOM      2  C1   11 d         -14.021 207.040 117.066  0.00  0.00     0.268 C 
ATOM      3  C2   11 d         -13.596 207.690 115.697  0.00  0.00     0.215 C 
ATOM      4  C3   11 d         -12.108 207.282 115.428  0.00  0.00     0.021 C 
ATOM      5  C4   11 d         -11.943 205.741 115.499  0.00  0.00     0.034 C 
ATOM      6  C5   11 d         -12.362 205.232 116.905  0.00  0.00     0.235 C 
ATOM      7  C6   11 d         -11.235 207.887 116.559  0.00  0.00     0.034 C 
ATOM      8  C7   11 d         -11.732 207.373 117.938  0.00  0.00     0.235 C 
ATOM      9  H1   11 d         -13.152 206.000 118.728  0.00  0.00     0.280 HD
ENDROOT
BRANCH   3  10
ATOM     10  N2   11 d         -14.560 207.404 114.565  0.00  0.00    -0.067 N 
ATOM     11  H14  11 d         -14.856 206.372 114.578  0.00  0.00     0.277 HD
ATOM     12  H15  11 d         -15.457 207.976 114.720  0.00  0.00     0.277 HD
BRANCH  10  13
ATOM     13  C8   11 d         -14.039 207.745 113.199  0.00  0.00     0.264 C 
BRANCH  13  14
ATOM     14  C9   11 d         -14.313 206.610 112.199  0.00  0.00     0.147 C 
ATOM     15  O1   11 d         -14.304 207.192 110.876  0.00  0.00    -0.384 OA
ATOM     16  C10  11 d         -15.581 206.874 110.268  0.00  0.00     0.168 C 
ATOM     17  C11  11 d         -16.552 206.592 111.397  0.00  0.00     0.029 C 
ATOM     18  C12  11 d         -15.657 205.909 112.404  0.00  0.00     0.036 C 
ENDBRANCH  13  14
ENDBRANCH  10  13
ENDBRANCH   3  10
TORSDOF 3
ENDMDL
