MODEL 1
REMARK VINA RESULT:     -10.1      0.000      0.000
REMARK  0 active torsions:
REMARK  status: ('A' for Active; 'I' for Inactive)
ROOT
ATOM      1  C1   11 d         -13.088 206.613 111.403  0.00  0.00    -0.021 A 
ATOM      2  C2   11 d         -13.840 205.855 112.332  0.00  0.00     0.035 A 
ATOM      3  C3   11 d         -15.195 205.588 112.066  0.00  0.00     0.033 A 
ATOM      4  C4   11 d         -15.803 206.120 110.917  0.00  0.00     0.044 A 
ATOM      5  C5   11 d         -15.067 206.930 110.037  0.00  0.00     0.117 A 
ATOM      6  F1   11 d         -15.673 207.463 108.936  0.00  0.00    -0.206 F 
ATOM      7  C6   11 d         -13.711 207.190 110.282  0.00  0.00     0.052 A 
ATOM      8  N1   11 d         -13.252 205.492 113.553  0.00  0.00    -0.380 N 
ATOM      9  C7   11 d         -12.117 206.181 114.134  0.00  0.00     0.121 C 
ATOM     10  C8   11 d         -12.418 206.728 115.530  0.00  0.00    -0.018 A 
ATOM     11  C9   11 d         -11.386 207.315 116.294  0.00  0.00     0.125 A 
ATOM     12  N2   11 d         -11.628 207.806 117.543  0.00  0.00    -0.273 NA
ATOM     13  C10  11 d         -12.866 207.755 118.108  0.00  0.00     0.116 A 
ATOM     14  C11  11 d         -13.927 207.178 117.406  0.00  0.00     0.020 A 
ATOM     15  C12  11 d         -13.702 206.663 116.121  0.00  0.00     0.012 A 
ATOM     16  C13  11 d         -11.633 207.319 113.177  0.00  0.00     0.028 C 
ATOM     17  C14  11 d         -11.632 206.761 111.751  0.00  0.00     0.050 C 
ATOM     18  C15  11 d         -10.712 207.670 111.017  0.00  0.00    -0.021 C 
ATOM     19  C16  11 d         -10.033 208.426 111.874  0.00  0.00    -0.029 C 
ATOM     20  C17  11 d         -10.287 208.028 113.299  0.00  0.00     0.035 C 
ATOM     21  H4   11 d         -13.635 204.718 114.048  0.00  0.00     0.160 HD
ENDROOT
TORSDOF 0
ENDMDL
MODEL 2
REMARK VINA RESULT:      -9.6      2.556      5.275
REMARK  0 active torsions:
REMARK  status: ('A' for Active; 'I' for Inactive)
ROOT
ATOM      1  C1   11 d         -10.927 207.286 113.219  0.00  0.00    -0.021 A 
ATOM      2  C2   11 d         -11.360 206.950 111.914  0.00  0.00     0.035 A 
ATOM      3  C3   11 d         -10.805 207.623 110.811  0.00  0.00     0.033 A 
ATOM      4  C4   11 d          -9.875 208.656 111.013  0.00  0.00     0.044 A 
ATOM      5  C5   11 d          -9.504 209.031 112.315  0.00  0.00     0.117 A 
ATOM      6  F1   11 d          -8.619 210.051 112.502  0.00  0.00    -0.206 F 
ATOM      7  C6   11 d         -10.038 208.355 113.423  0.00  0.00     0.052 A 
ATOM      8  N1   11 d         -12.418 206.043 111.757  0.00  0.00    -0.380 N 
ATOM      9  C7   11 d         -13.389 205.755 112.795  0.00  0.00     0.121 C 
ATOM     10  C8   11 d         -14.823 206.040 112.347  0.00  0.00    -0.018 A 
ATOM     11  C9   11 d         -15.905 205.695 113.186  0.00  0.00     0.125 A 
ATOM     12  N2   11 d         -17.193 205.936 112.808  0.00  0.00    -0.273 NA
ATOM     13  C10  11 d         -17.495 206.516 111.613  0.00  0.00     0.116 A 
ATOM     14  C11  11 d         -16.469 206.872 110.734  0.00  0.00     0.020 A 
ATOM     15  C12  11 d         -15.137 206.632 111.100  0.00  0.00     0.012 A 
ATOM     16  C13  11 d         -13.038 206.550 114.095  0.00  0.00     0.028 C 
ATOM     17  C14  11 d         -11.526 206.442 114.311  0.00  0.00     0.050 C 
ATOM     18  C15  11 d         -11.354 206.749 115.758  0.00  0.00    -0.021 C 
ATOM     19  C16  11 d         -12.532 206.726 116.373  0.00  0.00    -0.029 C 
ATOM     20  C17  11 d         -13.632 206.252 115.468  0.00  0.00     0.035 C 
ATOM     21  H4   11 d         -12.508 205.570 110.886  0.00  0.00     0.160 HD
ENDROOT
TORSDOF 0
ENDMDL
MODEL 3
REMARK VINA RESULT:      -9.2      3.154      5.264
REMARK  0 active torsions:
REMARK  status: ('A' for Active; 'I' for Inactive)
ROOT
ATOM      1  C1   11 d          -9.036 208.592 112.731  0.00  0.00    -0.021 A 
ATOM      2  C2   11 d          -9.166 208.866 114.113  0.00  0.00     0.035 A 
ATOM      3  C3   11 d          -8.008 209.057 114.889  0.00  0.00     0.033 A 
ATOM      4  C4   11 d          -6.739 208.919 114.302  0.00  0.00     0.044 A 
ATOM      5  C5   11 d          -6.619 208.576 112.945  0.00  0.00     0.117 A 
ATOM      6  F1   11 d          -5.382 208.420 112.391  0.00  0.00    -0.206 F 
ATOM      7  C6   11 d          -7.766 208.400 112.158  0.00  0.00     0.052 A 
ATOM      8  N1   11 d         -10.437 208.819 114.702  0.00  0.00    -0.380 N 
ATOM      9  C7   11 d         -11.559 208.097 114.135  0.00  0.00     0.121 C 
ATOM     10  C8   11 d         -12.122 207.046 115.093  0.00  0.00    -0.018 A 
ATOM     11  C9   11 d         -13.296 206.340 114.752  0.00  0.00     0.125 A 
ATOM     12  N2   11 d         -13.819 205.400 115.591  0.00  0.00    -0.273 NA
ATOM     13  C10  11 d         -13.240 205.100 116.786  0.00  0.00     0.116 A 
ATOM     14  C11  11 d         -12.080 205.772 117.184  0.00  0.00     0.020 A 
ATOM     15  C12  11 d         -11.525 206.743 116.340  0.00  0.00     0.012 A 
ATOM     16  C13  11 d         -11.148 207.452 112.771  0.00  0.00     0.028 C 
ATOM     17  C14  11 d         -10.341 208.491 111.989  0.00  0.00     0.050 C 
ATOM     18  C15  11 d         -10.437 208.025 110.579  0.00  0.00    -0.021 C 
ATOM     19  C16  11 d         -11.374 207.089 110.470  0.00  0.00    -0.029 C 
ATOM     20  C17  11 d         -12.139 206.905 111.748  0.00  0.00     0.035 C 
ATOM     21  H4   11 d         -10.579 209.308 115.558  0.00  0.00     0.160 HD
ENDROOT
TORSDOF 0
ENDMDL
MODEL 4
REMARK VINA RESULT:      -9.0      2.556      4.415
REMARK  0 active torsions:
REMARK  status: ('A' for Active; 'I' for Inactive)
ROOT
ATOM      1  C1   11 d         -11.826 207.688 112.905  0.00  0.00    -0.021 A 
ATOM      2  C2   11 d         -11.857 208.106 114.257  0.00  0.00     0.035 A 
ATOM      3  C3   11 d         -10.693 208.641 114.839  0.00  0.00     0.033 A 
ATOM      4  C4   11 d          -9.502 208.703 114.097  0.00  0.00     0.044 A 
ATOM      5  C5   11 d          -9.462 208.221 112.778  0.00  0.00     0.117 A 
ATOM      6  F1   11 d          -8.294 208.263 112.075  0.00  0.00    -0.206 F 
ATOM      7  C6   11 d         -10.620 207.701 112.182  0.00  0.00     0.052 A 
ATOM      8  N1   11 d         -13.008 207.864 115.020  0.00  0.00    -0.380 N 
ATOM      9  C7   11 d         -13.991 206.850 114.692  0.00  0.00     0.121 C 
ATOM     10  C8   11 d         -14.184 205.837 115.822  0.00  0.00    -0.018 A 
ATOM     11  C9   11 d         -15.195 204.857 115.723  0.00  0.00     0.125 A 
ATOM     12  N2   11 d         -15.389 203.945 116.718  0.00  0.00    -0.273 NA
ATOM     13  C10  11 d         -14.624 203.935 117.844  0.00  0.00     0.116 A 
ATOM     14  C11  11 d         -13.612 204.886 118.005  0.00  0.00     0.020 A 
ATOM     15  C12  11 d         -13.395 205.836 116.997  0.00  0.00     0.012 A 
ATOM     16  C13  11 d         -13.601 206.136 113.357  0.00  0.00     0.028 C 
ATOM     17  C14  11 d         -13.148 207.214 112.368  0.00  0.00     0.050 C 
ATOM     18  C15  11 d         -13.295 206.558 111.040  0.00  0.00    -0.021 C 
ATOM     19  C16  11 d         -13.998 205.436 111.159  0.00  0.00    -0.029 C 
ATOM     20  C17  11 d         -14.549 205.261 112.544  0.00  0.00     0.035 C 
ATOM     21  H4   11 d         -13.159 208.419 115.833  0.00  0.00     0.160 HD
ENDROOT
TORSDOF 0
ENDMDL
MODEL 5
REMARK VINA RESULT:      -8.8      3.651      6.013
REMARK  0 active torsions:
REMARK  status: ('A' for Active; 'I' for Inactive)
ROOT
ATOM      1  C1   11 d         -10.737 208.179 112.865  0.00  0.00    -0.021 A 
ATOM      2  C2   11 d         -10.033 208.490 111.678  0.00  0.00     0.035 A 
ATOM      3  C3   11 d         -10.458 207.931 110.459  0.00  0.00     0.033 A 
ATOM      4  C4   11 d         -11.535 207.028 110.438  0.00  0.00     0.044 A 
ATOM      5  C5   11 d         -12.182 206.670 111.632  0.00  0.00     0.117 A 
ATOM      6  F1   11 d         -13.211 205.774 111.604  0.00  0.00    -0.206 F 
ATOM      7  C6   11 d         -11.779 207.235 112.851  0.00  0.00     0.052 A 
ATOM      8  N1   11 d          -8.857 209.250 111.760  0.00  0.00    -0.380 N 
ATOM      9  C7   11 d          -8.063 209.373 112.967  0.00  0.00     0.121 C 
ATOM     10  C8   11 d          -6.620 208.908 112.767  0.00  0.00    -0.018 A 
ATOM     11  C9   11 d          -5.675 209.080 113.802  0.00  0.00     0.125 A 
ATOM     12  N2   11 d          -4.382 208.677 113.647  0.00  0.00    -0.273 NA
ATOM     13  C10  11 d          -3.942 208.096 112.496  0.00  0.00     0.116 A 
ATOM     14  C11  11 d          -4.828 207.907 111.431  0.00  0.00     0.020 A 
ATOM     15  C12  11 d          -6.162 208.315 111.566  0.00  0.00     0.012 A 
ATOM     16  C13  11 d          -8.746 208.596 114.140  0.00  0.00     0.028 C 
ATOM     17  C14  11 d         -10.246 208.902 114.090  0.00  0.00     0.050 C 
ATOM     18  C15  11 d         -10.717 208.579 115.464  0.00  0.00    -0.021 C 
ATOM     19  C16  11 d          -9.680 208.426 116.280  0.00  0.00    -0.029 C 
ATOM     20  C17  11 d          -8.381 208.771 115.611  0.00  0.00     0.035 C 
ATOM     21  H4   11 d          -8.549 209.730 110.944  0.00  0.00     0.160 HD
ENDROOT
TORSDOF 0
ENDMDL
MODEL 6
REMARK VINA RESULT:      -8.7      3.048      5.730
REMARK  0 active torsions:
REMARK  status: ('A' for Active; 'I' for Inactive)
ROOT
ATOM      1  C1   11 d         -11.830 207.665 116.064  0.00  0.00    -0.021 A 
ATOM      2  C2   11 d         -13.224 207.732 116.298  0.00  0.00     0.035 A 
ATOM      3  C3   11 d         -13.744 207.230 117.505  0.00  0.00     0.033 A 
ATOM      4  C4   11 d         -12.890 206.619 118.437  0.00  0.00     0.044 A 
ATOM      5  C5   11 d         -11.517 206.493 118.165  0.00  0.00     0.117 A 
ATOM      6  F1   11 d         -10.700 205.876 119.066  0.00  0.00    -0.206 F 
ATOM      7  C6   11 d         -10.984 207.005 116.973  0.00  0.00     0.052 A 
ATOM      8  N1   11 d         -14.068 208.184 115.273  0.00  0.00    -0.380 N 
ATOM      9  C7   11 d         -13.704 208.172 113.870  0.00  0.00     0.121 C 
ATOM     10  C8   11 d         -14.681 207.359 113.020  0.00  0.00    -0.018 A 
ATOM     11  C9   11 d         -14.551 207.348 111.614  0.00  0.00     0.125 A 
ATOM     12  N2   11 d         -15.412 206.633 110.834  0.00  0.00    -0.273 NA
ATOM     13  C10  11 d         -16.429 205.903 111.368  0.00  0.00     0.116 A 
ATOM     14  C11  11 d         -16.616 205.881 112.753  0.00  0.00     0.020 A 
ATOM     15  C12  11 d         -15.746 206.610 113.576  0.00  0.00     0.012 A 
ATOM     16  C13  11 d         -12.240 207.649 113.699  0.00  0.00     0.028 C 
ATOM     17  C14  11 d         -11.381 208.309 114.781  0.00  0.00     0.050 C 
ATOM     18  C15  11 d          -9.994 208.185 114.254  0.00  0.00    -0.021 C 
ATOM     19  C16  11 d         -10.021 207.825 112.975  0.00  0.00    -0.029 C 
ATOM     20  C17  11 d         -11.417 207.806 112.424  0.00  0.00     0.035 C 
ATOM     21  H4   11 d         -14.967 208.531 115.522  0.00  0.00     0.160 HD
ENDROOT
TORSDOF 0
ENDMDL
MODEL 7
REMARK VINA RESULT:      -8.7      3.069      5.190
REMARK  0 active torsions:
REMARK  status: ('A' for Active; 'I' for Inactive)
ROOT
ATOM      1  C1   11 d         -10.248 208.381 113.850  0.00  0.00    -0.021 A 
ATOM      2  C2   11 d          -9.567 209.031 114.907  0.00  0.00     0.035 A 
ATOM      3  C3   11 d          -8.273 209.534 114.685  0.00  0.00     0.033 A 
ATOM      4  C4   11 d          -7.646 209.338 113.443  0.00  0.00     0.044 A 
ATOM      5  C5   11 d          -8.302 208.629 112.423  0.00  0.00     0.117 A 
ATOM      6  F1   11 d          -7.676 208.422 111.229  0.00  0.00    -0.206 F 
ATOM      7  C6   11 d          -9.600 208.138 112.626  0.00  0.00     0.052 A 
ATOM      8  N1   11 d         -10.148 209.052 116.183  0.00  0.00    -0.380 N 
ATOM      9  C7   11 d         -11.155 208.106 116.623  0.00  0.00     0.121 C 
ATOM     10  C8   11 d         -10.726 207.334 117.871  0.00  0.00    -0.018 A 
ATOM     11  C9   11 d         -11.638 206.465 118.509  0.00  0.00     0.125 A 
ATOM     12  N2   11 d         -11.281 205.768 119.626  0.00  0.00    -0.273 NA
ATOM     13  C10  11 d         -10.039 205.876 120.174  0.00  0.00     0.116 A 
ATOM     14  C11  11 d          -9.094 206.727 119.594  0.00  0.00     0.020 A 
ATOM     15  C12  11 d          -9.439 207.456 118.447  0.00  0.00     0.012 A 
ATOM     16  C13  11 d         -11.521 207.131 115.457  0.00  0.00     0.028 C 
ATOM     17  C14  11 d         -11.656 207.963 114.178  0.00  0.00     0.050 C 
ATOM     18  C15  11 d         -12.475 207.102 113.282  0.00  0.00    -0.021 C 
ATOM     19  C16  11 d         -13.009 206.101 113.972  0.00  0.00    -0.029 C 
ATOM     20  C17  11 d         -12.753 206.232 115.445  0.00  0.00     0.035 C 
ATOM     21  H4   11 d          -9.852 209.754 116.824  0.00  0.00     0.160 HD
ENDROOT
TORSDOF 0
ENDMDL
MODEL 8
REMARK VINA RESULT:      -8.2      3.479      6.141
REMARK  0 active torsions:
REMARK  status: ('A' for Active; 'I' for Inactive)
ROOT
ATOM      1  C1   11 d          -9.448 208.644 115.991  0.00  0.00    -0.021 A 
ATOM      2  C2   11 d         -10.743 208.519 116.550  0.00  0.00     0.035 A 
ATOM      3  C3   11 d         -10.877 208.149 117.900  0.00  0.00     0.033 A 
ATOM      4  C4   11 d          -9.736 207.853 118.664  0.00  0.00     0.044 A 
ATOM      5  C5   11 d          -8.459 207.910 118.081  0.00  0.00     0.117 A 
ATOM      6  F1   11 d          -7.358 207.596 118.824  0.00  0.00    -0.206 F 
ATOM      7  C6   11 d          -8.311 208.294 116.740  0.00  0.00     0.052 A 
ATOM      8  N1   11 d         -11.862 208.647 115.715  0.00  0.00    -0.380 N 
ATOM      9  C7   11 d         -11.818 208.460 114.278  0.00  0.00     0.121 C 
ATOM     10  C8   11 d         -12.775 207.366 113.802  0.00  0.00    -0.018 A 
ATOM     11  C9   11 d         -12.954 207.140 112.419  0.00  0.00     0.125 A 
ATOM     12  N2   11 d         -13.804 206.173 111.970  0.00  0.00    -0.273 NA
ATOM     13  C10  11 d         -14.514 205.385 112.825  0.00  0.00     0.116 A 
ATOM     14  C11  11 d         -14.387 205.567 114.205  0.00  0.00     0.020 A 
ATOM     15  C12  11 d         -13.521 206.556 114.691  0.00  0.00     0.012 A 
ATOM     16  C13  11 d         -10.353 208.163 113.820  0.00  0.00     0.028 C 
ATOM     17  C14  11 d          -9.427 209.128 114.567  0.00  0.00     0.050 C 
ATOM     18  C15  11 d          -8.192 209.146 113.736  0.00  0.00    -0.021 C 
ATOM     19  C16  11 d          -8.425 208.576 112.558  0.00  0.00    -0.029 C 
ATOM     20  C17  11 d          -9.875 208.236 112.373  0.00  0.00     0.035 C 
ATOM     21  H4   11 d         -12.736 208.879 116.131  0.00  0.00     0.160 HD
ENDROOT
TORSDOF 0
ENDMDL
MODEL 9
REMARK VINA RESULT:      -8.2      1.982      3.982
REMARK  0 active torsions:
REMARK  status: ('A' for Active; 'I' for Inactive)
ROOT
ATOM      1  C1   11 d         -14.113 205.987 113.453  0.00  0.00    -0.021 A 
ATOM      2  C2   11 d         -13.550 207.056 112.717  0.00  0.00     0.035 A 
ATOM      3  C3   11 d         -13.513 206.981 111.313  0.00  0.00     0.033 A 
ATOM      4  C4   11 d         -13.980 205.829 110.659  0.00  0.00     0.044 A 
ATOM      5  C5   11 d         -14.472 204.743 111.401  0.00  0.00     0.117 A 
ATOM      6  F1   11 d         -14.900 203.619 110.758  0.00  0.00    -0.206 F 
ATOM      7  C6   11 d         -14.529 204.813 112.801  0.00  0.00     0.052 A 
ATOM      8  N1   11 d         -12.931 208.109 113.406  0.00  0.00    -0.380 N 
ATOM      9  C7   11 d         -12.430 207.997 114.762  0.00  0.00     0.121 C 
ATOM     10  C8   11 d         -10.938 208.317 114.861  0.00  0.00    -0.018 A 
ATOM     11  C9   11 d         -10.314 208.382 116.127  0.00  0.00     0.125 A 
ATOM     12  N2   11 d          -8.986 208.669 116.242  0.00  0.00    -0.273 NA
ATOM     13  C10  11 d          -8.204 208.904 115.152  0.00  0.00     0.116 A 
ATOM     14  C11  11 d          -8.765 208.864 113.873  0.00  0.00     0.020 A 
ATOM     15  C12  11 d         -10.128 208.574 113.729  0.00  0.00     0.012 A 
ATOM     16  C13  11 d         -12.739 206.574 115.332  0.00  0.00     0.028 C 
ATOM     17  C14  11 d         -14.175 206.217 114.938  0.00  0.00     0.050 C 
ATOM     18  C15  11 d         -14.551 205.152 115.907  0.00  0.00    -0.021 C 
ATOM     19  C16  11 d         -13.663 205.096 116.894  0.00  0.00    -0.029 C 
ATOM     20  C17  11 d         -12.657 206.207 116.811  0.00  0.00     0.035 C 
ATOM     21  H4   11 d         -12.829 208.983 112.939  0.00  0.00     0.160 HD
ENDROOT
TORSDOF 0
ENDMDL
MODEL 10
REMARK VINA RESULT:      -8.1      2.242      4.418
REMARK  0 active torsions:
REMARK  status: ('A' for Active; 'I' for Inactive)
ROOT
ATOM      1  C1   11 d         -12.666 207.131 114.015  0.00  0.00    -0.021 A 
ATOM      2  C2   11 d         -11.681 208.005 114.532  0.00  0.00     0.035 A 
ATOM      3  C3   11 d         -10.648 208.454 113.689  0.00  0.00     0.033 A 
ATOM      4  C4   11 d         -10.570 207.990 112.365  0.00  0.00     0.044 A 
ATOM      5  C5   11 d         -11.512 207.066 111.882  0.00  0.00     0.117 A 
ATOM      6  F1   11 d         -11.413 206.602 110.603  0.00  0.00    -0.206 F 
ATOM      7  C6   11 d         -12.556 206.625 112.708  0.00  0.00     0.052 A 
ATOM      8  N1   11 d         -11.686 208.306 115.902  0.00  0.00    -0.380 N 
ATOM      9  C7   11 d         -12.324 207.476 116.904  0.00  0.00     0.121 C 
ATOM     10  C8   11 d         -11.345 207.005 117.981  0.00  0.00    -0.018 A 
ATOM     11  C9   11 d         -11.823 206.295 119.104  0.00  0.00     0.125 A 
ATOM     12  N2   11 d         -10.971 205.867 120.080  0.00  0.00    -0.273 NA
ATOM     13  C10  11 d          -9.631 206.103 120.019  0.00  0.00     0.116 A 
ATOM     14  C11  11 d          -9.099 206.809 118.937  0.00  0.00     0.020 A 
ATOM     15  C12  11 d          -9.955 207.261 117.923  0.00  0.00     0.012 A 
ATOM     16  C13  11 d         -13.036 206.262 116.222  0.00  0.00     0.028 C 
ATOM     17  C14  11 d         -13.765 206.787 114.982  0.00  0.00     0.050 C 
ATOM     18  C15  11 d         -14.789 205.742 114.707  0.00  0.00    -0.021 C 
ATOM     19  C16  11 d         -14.890 204.917 115.744  0.00  0.00    -0.029 C 
ATOM     20  C17  11 d         -14.067 205.375 116.912  0.00  0.00     0.035 C 
ATOM     21  H4   11 d         -11.225 209.136 116.203  0.00  0.00     0.160 HD
ENDROOT
TORSDOF 0
ENDMDL
