MODEL 1
REMARK VINA RESULT:      -9.3      0.000      0.000
REMARK  1 active torsions:
REMARK  status: ('A' for Active; 'I' for Inactive)
REMARK    1  A    between atoms: C4_4  and  N1_17 
ROOT
ATOM      1  C1   11 d         -12.999 207.070 111.233  0.00  0.00     0.196 A 
ATOM      2  C2   11 d         -11.927 207.534 112.192  0.00  0.00     0.053 A 
ATOM      3  C3   11 d         -10.700 207.993 111.665  0.00  0.00     0.077 A 
ATOM      4  C4   11 d          -9.684 208.480 112.503  0.00  0.00     0.070 A 
ATOM      5  C5   11 d          -9.881 208.440 113.884  0.00  0.00     0.062 A 
ATOM      6 Cl1   11 d          -8.600 209.016 114.940  0.00  0.00    -0.082 Cl
ATOM      7  C6   11 d         -11.079 207.949 114.434  0.00  0.00     0.042 A 
ATOM      8  C7   11 d         -12.117 207.503 113.583  0.00  0.00     0.033 A 
ATOM      9  C8   11 d         -13.409 206.986 114.176  0.00  0.00     0.194 A 
ATOM     10  C9   11 d         -14.511 206.608 113.219  0.00  0.00     0.029 A 
ATOM     11  C10  11 d         -14.326 206.646 111.825  0.00  0.00     0.029 A 
ATOM     12  C11  11 d         -15.389 206.267 110.965  0.00  0.00     0.016 A 
ATOM     13  C12  11 d         -16.624 205.890 111.511  0.00  0.00     0.001 A 
ATOM     14  C13  11 d         -16.815 205.881 112.889  0.00  0.00     0.001 A 
ATOM     15  C14  11 d         -15.751 206.187 113.742  0.00  0.00     0.016 A 
ATOM     16  O1   11 d         -13.534 206.888 115.378  0.00  0.00    -0.287 OA
ATOM     17 Cl2   11 d         -10.458 207.946 109.926  0.00  0.00    -0.081 Cl
ATOM     18  O2   11 d         -12.786 207.047 110.041  0.00  0.00    -0.287 OA
ENDROOT
BRANCH   4  19
ATOM     19  N1   11 d          -8.458 209.012 111.965  0.00  0.00    -0.396 N 
ATOM     20  H    11 d          -7.728 209.463 112.626  0.00  0.00     0.156 HD
ATOM     21  H    11 d          -8.266 208.960 110.900  0.00  0.00     0.156 HD
ENDBRANCH   4  19
TORSDOF 1
ENDMDL
MODEL 2
REMARK VINA RESULT:      -9.2      1.313      3.093
REMARK  1 active torsions:
REMARK  status: ('A' for Active; 'I' for Inactive)
REMARK    1  A    between atoms: C4_4  and  N1_17 
ROOT
ATOM      1  C1   11 d         -13.200 207.421 114.052  0.00  0.00     0.196 A 
ATOM      2  C2   11 d         -11.830 207.724 113.492  0.00  0.00     0.053 A 
ATOM      3  C3   11 d         -10.815 208.149 114.376  0.00  0.00     0.077 A 
ATOM      4  C4   11 d          -9.511 208.400 113.923  0.00  0.00     0.070 A 
ATOM      5  C5   11 d          -9.245 208.287 112.557  0.00  0.00     0.062 A 
ATOM      6 Cl1   11 d          -7.623 208.632 111.978  0.00  0.00    -0.082 Cl
ATOM      7  C6   11 d         -10.249 207.904 111.650  0.00  0.00     0.042 A 
ATOM      8  C7   11 d         -11.551 207.608 112.120  0.00  0.00     0.033 A 
ATOM      9  C8   11 d         -12.627 207.185 111.145  0.00  0.00     0.194 A 
ATOM     10  C9   11 d         -13.968 206.798 111.714  0.00  0.00     0.029 A 
ATOM     11  C10  11 d         -14.247 206.906 113.089  0.00  0.00     0.029 A 
ATOM     12  C11  11 d         -15.529 206.542 113.575  0.00  0.00     0.016 A 
ATOM     13  C12  11 d         -16.495 206.047 112.687  0.00  0.00     0.001 A 
ATOM     14  C13  11 d         -16.209 205.914 111.332  0.00  0.00     0.001 A 
ATOM     15  C14  11 d         -14.971 206.335 110.838  0.00  0.00     0.016 A 
ATOM     16  O1   11 d         -12.399 207.165 109.954  0.00  0.00    -0.287 OA
ATOM     17 Cl2   11 d         -11.212 208.364 116.074  0.00  0.00    -0.081 Cl
ATOM     18  O2   11 d         -13.432 207.591 115.229  0.00  0.00    -0.287 OA
ENDROOT
BRANCH   4  19
ATOM     19  N1   11 d          -8.456 208.768 114.834  0.00  0.00    -0.396 N 
ATOM     20  H    11 d          -8.413 209.773 115.235  0.00  0.00     0.156 HD
ATOM     21  H    11 d          -7.707 208.039 115.118  0.00  0.00     0.156 HD
ENDBRANCH   4  19
TORSDOF 1
ENDMDL
MODEL 3
REMARK VINA RESULT:      -9.2      1.756      2.177
REMARK  1 active torsions:
REMARK  status: ('A' for Active; 'I' for Inactive)
REMARK    1  A    between atoms: C4_4  and  N1_17 
ROOT
ATOM      1  C1   11 d         -12.206 207.381 112.328  0.00  0.00     0.196 A 
ATOM      2  C2   11 d         -11.860 207.639 113.775  0.00  0.00     0.053 A 
ATOM      3  C3   11 d         -10.541 208.027 114.098  0.00  0.00     0.077 A 
ATOM      4  C4   11 d         -10.171 208.325 115.419  0.00  0.00     0.070 A 
ATOM      5  C5   11 d         -11.120 208.165 116.430  0.00  0.00     0.062 A 
ATOM      6 Cl1   11 d         -10.655 208.504 118.090  0.00  0.00    -0.082 Cl
ATOM      7  C6   11 d         -12.429 207.741 116.139  0.00  0.00     0.042 A 
ATOM      8  C7   11 d         -12.808 207.487 114.799  0.00  0.00     0.033 A 
ATOM      9  C8   11 d         -14.220 207.042 114.487  0.00  0.00     0.194 A 
ATOM     10  C9   11 d         -14.589 206.871 113.035  0.00  0.00     0.029 A 
ATOM     11  C10  11 d         -13.642 207.031 112.007  0.00  0.00     0.029 A 
ATOM     12  C11  11 d         -14.035 206.847 110.656  0.00  0.00     0.016 A 
ATOM     13  C12  11 d         -15.370 206.539 110.356  0.00  0.00     0.001 A 
ATOM     14  C13  11 d         -16.312 206.409 111.372  0.00  0.00     0.001 A 
ATOM     15  C14  11 d         -15.916 206.523 112.707  0.00  0.00     0.016 A 
ATOM     16  O1   11 d         -15.009 206.835 115.384  0.00  0.00    -0.287 OA
ATOM     17 Cl2   11 d          -9.353 208.131 112.809  0.00  0.00    -0.081 Cl
ATOM     18  O2   11 d         -11.352 207.458 111.471  0.00  0.00    -0.287 OA
ENDROOT
BRANCH   4  19
ATOM     19  N1   11 d          -8.845 208.787 115.743  0.00  0.00    -0.396 N 
ATOM     20  H    11 d          -8.573 209.819 115.564  0.00  0.00     0.156 HD
ATOM     21  H    11 d          -8.121 208.101 116.167  0.00  0.00     0.156 HD
ENDBRANCH   4  19
TORSDOF 1
ENDMDL
MODEL 4
REMARK VINA RESULT:      -8.4      2.803      5.566
REMARK  1 active torsions:
REMARK  status: ('A' for Active; 'I' for Inactive)
REMARK    1  A    between atoms: C4_4  and  N1_17 
ROOT
ATOM      1  C1   11 d         -10.636 207.987 111.905  0.00  0.00     0.196 A 
ATOM      2  C2   11 d         -11.896 207.492 112.576  0.00  0.00     0.053 A 
ATOM      3  C3   11 d         -12.923 206.948 111.773  0.00  0.00     0.077 A 
ATOM      4  C4   11 d         -14.096 206.430 112.343  0.00  0.00     0.070 A 
ATOM      5  C5   11 d         -14.265 206.522 113.725  0.00  0.00     0.062 A 
ATOM      6 Cl1   11 d         -15.746 205.906 114.441  0.00  0.00    -0.082 Cl
ATOM      7  C6   11 d         -13.274 207.096 114.542  0.00  0.00     0.042 A 
ATOM      8  C7   11 d         -12.073 207.575 113.967  0.00  0.00     0.033 A 
ATOM      9  C8   11 d         -11.004 208.181 114.848  0.00  0.00     0.194 A 
ATOM     10  C9   11 d          -9.712 208.593 114.190  0.00  0.00     0.029 A 
ATOM     11  C10  11 d          -9.529 208.503 112.798  0.00  0.00     0.029 A 
ATOM     12  C11  11 d          -8.299 208.916 112.223  0.00  0.00     0.016 A 
ATOM     13  C12  11 d          -7.266 209.378 113.051  0.00  0.00     0.001 A 
ATOM     14  C13  11 d          -7.437 209.440 114.430  0.00  0.00     0.001 A 
ATOM     15  C14  11 d          -8.670 209.099 114.994  0.00  0.00     0.016 A 
ATOM     16  O1   11 d         -11.199 208.322 116.036  0.00  0.00    -0.287 OA
ATOM     17 Cl2   11 d         -12.709 206.930 110.030  0.00  0.00    -0.081 Cl
ATOM     18  O2   11 d         -10.535 207.962 110.698  0.00  0.00    -0.287 OA
ENDROOT
BRANCH   4  19
ATOM     19  N1   11 d         -15.116 205.813 111.532  0.00  0.00    -0.396 N 
ATOM     20  H    11 d         -15.460 206.302 110.630  0.00  0.00     0.156 HD
ATOM     21  H    11 d         -15.536 204.858 111.826  0.00  0.00     0.156 HD
ENDBRANCH   4  19
TORSDOF 1
ENDMDL
MODEL 5
REMARK VINA RESULT:      -8.3      2.343      4.037
REMARK  1 active torsions:
REMARK  status: ('A' for Active; 'I' for Inactive)
REMARK    1  A    between atoms: C4_4  and  N1_17 
ROOT
ATOM      1  C1   11 d         -11.396 207.633 114.608  0.00  0.00     0.196 A 
ATOM      2  C2   11 d         -10.034 208.224 114.330  0.00  0.00     0.053 A 
ATOM      3  C3   11 d          -9.234 208.625 115.422  0.00  0.00     0.077 A 
ATOM      4  C4   11 d          -7.942 209.138 115.230  0.00  0.00     0.070 A 
ATOM      5  C5   11 d          -7.480 209.311 113.924  0.00  0.00     0.062 A 
ATOM      6 Cl1   11 d          -5.876 209.984 113.675  0.00  0.00    -0.082 Cl
ATOM      7  C6   11 d          -8.273 208.957 112.819  0.00  0.00     0.042 A 
ATOM      8  C7   11 d          -9.558 208.397 113.021  0.00  0.00     0.033 A 
ATOM      9  C8   11 d         -10.405 208.007 111.831  0.00  0.00     0.194 A 
ATOM     10  C9   11 d         -11.726 207.335 112.109  0.00  0.00     0.029 A 
ATOM     11  C10  11 d         -12.202 207.153 113.420  0.00  0.00     0.029 A 
ATOM     12  C11  11 d         -13.458 206.527 113.631  0.00  0.00     0.016 A 
ATOM     13  C12  11 d         -14.197 206.067 112.532  0.00  0.00     0.001 A 
ATOM     14  C13  11 d         -13.713 206.221 111.238  0.00  0.00     0.001 A 
ATOM     15  C14  11 d         -12.509 206.897 111.021  0.00  0.00     0.016 A 
ATOM     16  O1   11 d         -10.019 208.233 110.704  0.00  0.00    -0.287 OA
ATOM     17 Cl2   11 d          -9.886 208.473 117.046  0.00  0.00    -0.081 Cl
ATOM     18  O2   11 d         -11.809 207.554 115.744  0.00  0.00    -0.287 OA
ENDROOT
BRANCH   4  19
ATOM     19  N1   11 d          -7.096 209.485 116.345  0.00  0.00    -0.396 N 
ATOM     20  H    11 d          -7.440 209.314 117.357  0.00  0.00     0.156 HD
ATOM     21  H    11 d          -6.118 209.914 116.169  0.00  0.00     0.156 HD
ENDBRANCH   4  19
TORSDOF 1
ENDMDL
MODEL 6
REMARK VINA RESULT:      -8.3      3.119      4.817
REMARK  1 active torsions:
REMARK  status: ('A' for Active; 'I' for Inactive)
REMARK    1  A    between atoms: C4_4  and  N1_17 
ROOT
ATOM      1  C1   11 d         -14.943 205.823 113.926  0.00  0.00     0.196 A 
ATOM      2  C2   11 d         -14.168 206.288 112.716  0.00  0.00     0.053 A 
ATOM      3  C3   11 d         -14.873 206.563 111.524  0.00  0.00     0.077 A 
ATOM      4  C4   11 d         -14.214 207.043 110.381  0.00  0.00     0.070 A 
ATOM      5  C5   11 d         -12.827 207.182 110.420  0.00  0.00     0.062 A 
ATOM      6 Cl1   11 d         -11.991 207.750 108.982  0.00  0.00    -0.082 Cl
ATOM      7  C6   11 d         -12.097 206.877 111.582  0.00  0.00     0.042 A 
ATOM      8  C7   11 d         -12.772 206.437 112.746  0.00  0.00     0.033 A 
ATOM      9  C8   11 d         -11.986 206.120 113.999  0.00  0.00     0.194 A 
ATOM     10  C9   11 d         -12.768 205.742 115.232  0.00  0.00     0.029 A 
ATOM     11  C10  11 d         -14.167 205.600 115.206  0.00  0.00     0.029 A 
ATOM     12  C11  11 d         -14.856 205.229 116.389  0.00  0.00     0.016 A 
ATOM     13  C12  11 d         -14.141 205.039 117.580  0.00  0.00     0.001 A 
ATOM     14  C13  11 d         -12.760 205.207 117.611  0.00  0.00     0.001 A 
ATOM     15  C14  11 d         -12.069 205.506 116.434  0.00  0.00     0.016 A 
ATOM     16  O1   11 d         -10.775 206.174 113.991  0.00  0.00    -0.287 OA
ATOM     17 Cl2   11 d         -16.608 206.291 111.489  0.00  0.00    -0.081 Cl
ATOM     18  O2   11 d         -16.138 205.641 113.855  0.00  0.00    -0.287 OA
ENDROOT
BRANCH   4  19
ATOM     19  N1   11 d         -14.940 207.389 109.185  0.00  0.00    -0.396 N 
ATOM     20  H    11 d         -15.473 208.329 109.128  0.00  0.00     0.156 HD
ATOM     21  H    11 d         -14.951 206.708 108.342  0.00  0.00     0.156 HD
ENDBRANCH   4  19
TORSDOF 1
ENDMDL
MODEL 7
REMARK VINA RESULT:      -8.3      3.525      6.512
REMARK  1 active torsions:
REMARK  status: ('A' for Active; 'I' for Inactive)
REMARK    1  A    between atoms: C4_4  and  N1_17 
ROOT
ATOM      1  C1   11 d         -10.187 208.398 115.617  0.00  0.00     0.196 A 
ATOM      2  C2   11 d         -11.540 207.794 115.321  0.00  0.00     0.053 A 
ATOM      3  C3   11 d         -12.437 207.585 116.391  0.00  0.00     0.077 A 
ATOM      4  C4   11 d         -13.725 207.070 116.173  0.00  0.00     0.070 A 
ATOM      5  C5   11 d         -14.085 206.701 114.876  0.00  0.00     0.062 A 
ATOM      6 Cl1   11 d         -15.683 206.025 114.601  0.00  0.00    -0.082 Cl
ATOM      7  C6   11 d         -13.195 206.862 113.800  0.00  0.00     0.042 A 
ATOM      8  C7   11 d         -11.914 207.424 114.019  0.00  0.00     0.033 A 
ATOM      9  C8   11 d         -10.962 207.607 112.858  0.00  0.00     0.194 A 
ATOM     10  C9   11 d          -9.648 208.292 113.139  0.00  0.00     0.029 A 
ATOM     11  C10  11 d          -9.274 208.670 114.441  0.00  0.00     0.029 A 
ATOM     12  C11  11 d          -8.021 209.300 114.656  0.00  0.00     0.016 A 
ATOM     13  C12  11 d          -7.182 209.568 113.565  0.00  0.00     0.001 A 
ATOM     14  C13  11 d          -7.565 209.219 112.275  0.00  0.00     0.001 A 
ATOM     15  C14  11 d          -8.767 208.538 112.066  0.00  0.00     0.016 A 
ATOM     16  O1   11 d         -11.263 207.212 111.753  0.00  0.00    -0.287 OA
ATOM     17 Cl2   11 d         -11.913 207.981 118.020  0.00  0.00    -0.081 Cl
ATOM     18  O2   11 d          -9.864 208.649 116.757  0.00  0.00    -0.287 OA
ENDROOT
BRANCH   4  19
ATOM     19  N1   11 d         -14.667 206.919 117.253  0.00  0.00    -0.396 N 
ATOM     20  H    11 d         -14.708 205.992 117.810  0.00  0.00     0.156 HD
ATOM     21  H    11 d         -15.332 207.735 117.509  0.00  0.00     0.156 HD
ENDBRANCH   4  19
TORSDOF 1
ENDMDL
MODEL 8
REMARK VINA RESULT:      -8.2      3.608      4.932
REMARK  1 active torsions:
REMARK  status: ('A' for Active; 'I' for Inactive)
REMARK    1  A    between atoms: C4_4  and  N1_17 
ROOT
ATOM      1  C1   11 d         -13.049 206.305 113.360  0.00  0.00     0.196 A 
ATOM      2  C2   11 d         -12.546 206.384 114.782  0.00  0.00     0.053 A 
ATOM      3  C3   11 d         -13.294 205.754 115.801  0.00  0.00     0.077 A 
ATOM      4  C4   11 d         -12.854 205.753 117.134  0.00  0.00     0.070 A 
ATOM      5  C5   11 d         -11.687 206.448 117.452  0.00  0.00     0.062 A 
ATOM      6 Cl1   11 d         -11.148 206.480 119.124  0.00  0.00    -0.082 Cl
ATOM      7  C6   11 d         -10.946 207.118 116.462  0.00  0.00     0.042 A 
ATOM      8  C7   11 d         -11.370 207.077 115.112  0.00  0.00     0.033 A 
ATOM      9  C8   11 d         -10.565 207.787 114.047  0.00  0.00     0.194 A 
ATOM     10  C9   11 d         -11.018 207.634 112.617  0.00  0.00     0.029 A 
ATOM     11  C10  11 d         -12.191 206.934 112.283  0.00  0.00     0.029 A 
ATOM     12  C11  11 d         -12.583 206.828 110.923  0.00  0.00     0.016 A 
ATOM     13  C12  11 d         -11.781 207.395 109.923  0.00  0.00     0.001 A 
ATOM     14  C13  11 d         -10.606 208.063 110.252  0.00  0.00     0.001 A 
ATOM     15  C14  11 d         -10.251 208.228 111.593  0.00  0.00     0.016 A 
ATOM     16  O1   11 d          -9.597 208.449 114.352  0.00  0.00    -0.287 OA
ATOM     17 Cl2   11 d         -14.803 204.963 115.373  0.00  0.00    -0.081 Cl
ATOM     18  O2   11 d         -14.099 205.756 113.111  0.00  0.00    -0.287 OA
ENDROOT
BRANCH   4  19
ATOM     19  N1   11 d         -13.579 205.053 118.164  0.00  0.00    -0.396 N 
ATOM     20  H    11 d         -13.076 204.312 118.772  0.00  0.00     0.156 HD
ATOM     21  H    11 d         -14.627 205.271 118.332  0.00  0.00     0.156 HD
ENDBRANCH   4  19
TORSDOF 1
ENDMDL
MODEL 9
REMARK VINA RESULT:      -8.1      2.213      4.226
REMARK  1 active torsions:
REMARK  status: ('A' for Active; 'I' for Inactive)
REMARK    1  A    between atoms: C4_4  and  N1_17 
ROOT
ATOM      1  C1   11 d         -11.436 207.341 115.613  0.00  0.00     0.196 A 
ATOM      2  C2   11 d         -11.412 207.393 114.104  0.00  0.00     0.053 A 
ATOM      3  C3   11 d         -10.407 208.154 113.468  0.00  0.00     0.077 A 
ATOM      4  C4   11 d         -10.304 208.202 112.069  0.00  0.00     0.070 A 
ATOM      5  C5   11 d         -11.263 207.533 111.306  0.00  0.00     0.062 A 
ATOM      6 Cl1   11 d         -11.161 207.617 109.554  0.00  0.00    -0.082 Cl
ATOM      7  C6   11 d         -12.297 206.802 111.915  0.00  0.00     0.042 A 
ATOM      8  C7   11 d         -12.368 206.719 113.327  0.00  0.00     0.033 A 
ATOM      9  C8   11 d         -13.475 205.922 113.980  0.00  0.00     0.194 A 
ATOM     10  C9   11 d         -13.447 205.798 115.483  0.00  0.00     0.029 A 
ATOM     11  C10  11 d         -12.485 206.465 116.263  0.00  0.00     0.029 A 
ATOM     12  C11  11 d         -12.508 206.328 117.675  0.00  0.00     0.016 A 
ATOM     13  C12  11 d         -13.469 205.503 118.277  0.00  0.00     0.001 A 
ATOM     14  C13  11 d         -14.402 204.820 117.503  0.00  0.00     0.001 A 
ATOM     15  C14  11 d         -14.426 205.006 116.118  0.00  0.00     0.016 A 
ATOM     16  O1   11 d         -14.342 205.411 113.305  0.00  0.00    -0.287 OA
ATOM     17 Cl2   11 d          -9.272 209.052 114.464  0.00  0.00    -0.081 Cl
ATOM     18  O2   11 d         -10.639 207.983 116.261  0.00  0.00    -0.287 OA
ENDROOT
BRANCH   4  19
ATOM     19  N1   11 d          -9.239 208.922 111.417  0.00  0.00    -0.396 N 
ATOM     20  H    11 d          -9.028 209.947 111.697  0.00  0.00     0.156 HD
ATOM     21  H    11 d          -8.648 208.437 110.650  0.00  0.00     0.156 HD
ENDBRANCH   4  19
TORSDOF 1
ENDMDL
MODEL 10
REMARK VINA RESULT:      -8.1      3.179      4.944
REMARK  1 active torsions:
REMARK  status: ('A' for Active; 'I' for Inactive)
REMARK    1  A    between atoms: C4_4  and  N1_17 
ROOT
ATOM      1  C1   11 d         -10.605 207.799 113.789  0.00  0.00     0.196 A 
ATOM      2  C2   11 d         -11.500 207.140 114.812  0.00  0.00     0.053 A 
ATOM      3  C3   11 d         -11.194 207.294 116.182  0.00  0.00     0.077 A 
ATOM      4  C4   11 d         -12.014 206.745 117.179  0.00  0.00     0.070 A 
ATOM      5  C5   11 d         -13.113 205.977 116.791  0.00  0.00     0.062 A 
ATOM      6 Cl1   11 d         -14.126 205.258 118.034  0.00  0.00    -0.082 Cl
ATOM      7  C6   11 d         -13.417 205.775 115.433  0.00  0.00     0.042 A 
ATOM      8  C7   11 d         -12.612 206.370 114.432  0.00  0.00     0.033 A 
ATOM      9  C8   11 d         -12.947 206.161 112.972  0.00  0.00     0.194 A 
ATOM     10  C9   11 d         -12.106 206.891 111.955  0.00  0.00     0.029 A 
ATOM     11  C10  11 d         -10.997 207.669 112.334  0.00  0.00     0.029 A 
ATOM     12  C11  11 d         -10.229 208.327 111.339  0.00  0.00     0.016 A 
ATOM     13  C12  11 d         -10.601 208.222 109.991  0.00  0.00     0.001 A 
ATOM     14  C13  11 d         -11.715 207.475 109.620  0.00  0.00     0.001 A 
ATOM     15  C14  11 d         -12.434 206.771 110.589  0.00  0.00     0.016 A 
ATOM     16  O1   11 d         -13.859 205.430 112.653  0.00  0.00    -0.287 OA
ATOM     17 Cl2   11 d          -9.752 208.194 116.626  0.00  0.00    -0.081 Cl
ATOM     18  O2   11 d          -9.616 208.404 114.141  0.00  0.00    -0.287 OA
ENDROOT
BRANCH   4  19
ATOM     19  N1   11 d         -11.742 206.958 118.578  0.00  0.00    -0.396 N 
ATOM     20  H    11 d         -12.304 207.700 119.132  0.00  0.00     0.156 HD
ATOM     21  H    11 d         -10.977 206.374 119.076  0.00  0.00     0.156 HD
ENDBRANCH   4  19
TORSDOF 1
ENDMDL
