MODEL 1
REMARK VINA RESULT:      -7.9      0.000      0.000
REMARK  0 active torsions:
REMARK  status: ('A' for Active; 'I' for Inactive)
REMARK       I    between atoms: C1_1  and  N1_2 
ROOT
ATOM      1  C1   11 d         -11.335 207.374 111.826  0.00  0.00     0.221 C 
ATOM      2  N1   11 d         -12.212 207.212 113.004  0.00  0.00    -0.309 N 
ATOM      3  C2   11 d         -13.584 206.556 112.907  0.00  0.00     0.045 C 
ATOM      4  C3   11 d         -14.470 206.531 114.040  0.00  0.00    -0.018 C 
ATOM      5  C4   11 d         -14.026 206.790 115.483  0.00  0.00     0.015 C 
ATOM      6  C5   11 d         -14.342 205.634 116.477  0.00  0.00    -0.045 A 
ATOM      7  C6   11 d         -14.039 205.797 117.856  0.00  0.00     0.008 A 
ATOM      8  C7   11 d         -14.330 204.798 118.796  0.00  0.00     0.001 A 
ATOM      9  C8   11 d         -14.920 203.599 118.384  0.00  0.00     0.000 A 
ATOM     10  C9   11 d         -15.206 203.396 117.030  0.00  0.00     0.001 A 
ATOM     11  C10  11 d         -14.915 204.394 116.088  0.00  0.00     0.008 A 
ATOM     12  C11  11 d         -12.488 206.943 115.517  0.00  0.00     0.049 C 
ATOM     13  C12  11 d         -11.771 207.726 114.385  0.00  0.00     0.034 C 
ATOM     14  C13  11 d         -10.259 207.498 114.722  0.00  0.00     0.039 C 
ATOM     15  C14  11 d         -12.089 209.234 114.482  0.00  0.00     0.039 C 
ATOM     16  C15  11 d         -14.764 208.066 115.986  0.00  0.00     0.026 C 
ATOM     17  C16  11 d         -15.854 206.273 113.841  0.00  0.00     0.010 C 
ATOM     18  C17  11 d         -16.345 205.849 112.611  0.00  0.00     0.001 C 
ATOM     19  C18  11 d         -15.464 205.672 111.552  0.00  0.00     0.002 C 
ATOM     20  C19  11 d         -14.116 206.013 111.697  0.00  0.00     0.030 C 
ATOM     21  O1   11 d         -11.702 206.980 110.670  0.00  0.00    -0.273 OA
ATOM     22  C20  11 d          -9.997 208.070 111.794  0.00  0.00     0.117 C 
ENDROOT
TORSDOF 0
ENDMDL
MODEL 2
REMARK VINA RESULT:      -7.8      2.625      5.917
REMARK  0 active torsions:
REMARK  status: ('A' for Active; 'I' for Inactive)
REMARK       I    between atoms: C1_1  and  N1_2 
ROOT
ATOM      1  C1   11 d         -11.138 206.186 118.990  0.00  0.00     0.221 C 
ATOM      2  N1   11 d         -11.781 206.653 117.744  0.00  0.00    -0.309 N 
ATOM      3  C2   11 d         -11.011 207.413 116.671  0.00  0.00     0.045 C 
ATOM      4  C3   11 d         -11.689 207.971 115.532  0.00  0.00    -0.018 C 
ATOM      5  C4   11 d         -13.098 207.565 115.089  0.00  0.00     0.015 C 
ATOM      6  C5   11 d         -13.193 207.039 113.627  0.00  0.00    -0.045 A 
ATOM      7  C6   11 d         -14.464 206.701 113.087  0.00  0.00     0.008 A 
ATOM      8  C7   11 d         -14.606 206.250 111.767  0.00  0.00     0.001 A 
ATOM      9  C8   11 d         -13.480 206.108 110.951  0.00  0.00     0.000 A 
ATOM     10  C9   11 d         -12.212 206.404 111.459  0.00  0.00     0.001 A 
ATOM     11  C10  11 d         -12.067 206.856 112.780  0.00  0.00     0.008 A 
ATOM     12  C11  11 d         -13.586 206.395 115.973  0.00  0.00     0.049 C 
ATOM     13  C12  11 d         -13.278 206.403 117.493  0.00  0.00     0.034 C 
ATOM     14  C13  11 d         -13.797 204.998 117.951  0.00  0.00     0.039 C 
ATOM     15  C14  11 d         -14.095 207.501 118.208  0.00  0.00     0.039 C 
ATOM     16  C15  11 d         -14.013 208.821 115.203  0.00  0.00     0.026 C 
ATOM     17  C16  11 d         -11.049 208.978 114.760  0.00  0.00     0.010 C 
ATOM     18  C17  11 d          -9.710 209.301 114.951  0.00  0.00     0.001 C 
ATOM     19  C18  11 d          -8.980 208.624 115.919  0.00  0.00     0.002 C 
ATOM     20  C19  11 d          -9.613 207.699 116.755  0.00  0.00     0.030 C 
ATOM     21  O1   11 d          -9.905 206.414 119.222  0.00  0.00    -0.273 OA
ATOM     22  C20  11 d         -11.818 205.494 120.144  0.00  0.00     0.117 C 
ENDROOT
TORSDOF 0
ENDMDL
MODEL 3
REMARK VINA RESULT:      -7.1      6.671      9.830
REMARK  0 active torsions:
REMARK  status: ('A' for Active; 'I' for Inactive)
REMARK       I    between atoms: C1_1  and  N1_2 
ROOT
ATOM      1  C1   11 d          -2.948 206.159 116.932  0.00  0.00     0.221 C 
ATOM      2  N1   11 d          -3.878 207.130 116.319  0.00  0.00    -0.309 N 
ATOM      3  C2   11 d          -3.656 207.692 114.920  0.00  0.00     0.045 C 
ATOM      4  C3   11 d          -4.501 208.734 114.400  0.00  0.00    -0.018 C 
ATOM      5  C4   11 d          -5.866 209.104 114.989  0.00  0.00     0.015 C 
ATOM      6  C5   11 d          -7.051 209.018 113.982  0.00  0.00    -0.045 A 
ATOM      7  C6   11 d          -8.352 209.408 114.401  0.00  0.00     0.008 A 
ATOM      8  C7   11 d          -9.447 209.378 113.524  0.00  0.00     0.001 A 
ATOM      9  C8   11 d          -9.277 208.942 112.207  0.00  0.00     0.000 A 
ATOM     10  C9   11 d          -8.016 208.524 111.771  0.00  0.00     0.001 A 
ATOM     11  C10  11 d          -6.919 208.554 112.646  0.00  0.00     0.008 A 
ATOM     12  C11  11 d          -6.218 208.103 116.113  0.00  0.00     0.049 C 
ATOM     13  C12  11 d          -5.111 207.630 117.091  0.00  0.00     0.034 C 
ATOM     14  C13  11 d          -5.849 206.536 117.934  0.00  0.00     0.039 C 
ATOM     15  C14  11 d          -4.682 208.783 118.025  0.00  0.00     0.039 C 
ATOM     16  C15  11 d          -5.782 210.573 115.501  0.00  0.00     0.026 C 
ATOM     17  C16  11 d          -4.063 209.500 113.286  0.00  0.00     0.010 C 
ATOM     18  C17  11 d          -2.932 209.146 112.558  0.00  0.00     0.001 C 
ATOM     19  C18  11 d          -2.214 208.018 112.927  0.00  0.00     0.002 C 
ATOM     20  C19  11 d          -2.569 207.305 114.077  0.00  0.00     0.030 C 
ATOM     21  O1   11 d          -1.908 205.761 116.313  0.00  0.00    -0.273 OA
ATOM     22  C20  11 d          -3.032 205.597 118.329  0.00  0.00     0.117 C 
ENDROOT
TORSDOF 0
ENDMDL
MODEL 4
REMARK VINA RESULT:      -6.8     11.093     14.932
REMARK  0 active torsions:
REMARK  status: ('A' for Active; 'I' for Inactive)
REMARK       I    between atoms: C1_1  and  N1_2 
ROOT
ATOM      1  C1   11 d         -25.818 199.346 123.975  0.00  0.00     0.221 C 
ATOM      2  N1   11 d         -24.480 199.969 124.043  0.00  0.00    -0.309 N 
ATOM      3  C2   11 d         -23.304 199.451 123.224  0.00  0.00     0.045 C 
ATOM      4  C3   11 d         -21.983 199.989 123.407  0.00  0.00    -0.018 C 
ATOM      5  C4   11 d         -21.689 201.318 124.111  0.00  0.00     0.015 C 
ATOM      6  C5   11 d         -20.902 202.349 123.249  0.00  0.00    -0.045 A 
ATOM      7  C6   11 d         -20.513 203.588 123.826  0.00  0.00     0.008 A 
ATOM      8  C7   11 d         -19.778 204.538 123.101  0.00  0.00     0.001 A 
ATOM      9  C8   11 d         -19.425 204.284 121.772  0.00  0.00     0.000 A 
ATOM     10  C9   11 d         -19.817 203.087 121.166  0.00  0.00     0.001 A 
ATOM     11  C10  11 d         -20.551 202.135 121.889  0.00  0.00     0.008 A 
ATOM     12  C11  11 d         -23.026 202.013 124.454  0.00  0.00     0.049 C 
ATOM     13  C12  11 d         -24.219 201.167 124.971  0.00  0.00     0.034 C 
ATOM     14  C13  11 d         -25.378 202.219 125.032  0.00  0.00     0.039 C 
ATOM     15  C14  11 d         -23.936 200.643 126.395  0.00  0.00     0.039 C 
ATOM     16  C15  11 d         -20.836 201.007 125.377  0.00  0.00     0.026 C 
ATOM     17  C16  11 d         -20.858 199.259 122.937  0.00  0.00     0.010 C 
ATOM     18  C17  11 d         -21.004 198.136 122.130  0.00  0.00     0.001 C 
ATOM     19  C18  11 d         -22.278 197.718 121.775  0.00  0.00     0.002 C 
ATOM     20  C19  11 d         -23.402 198.361 122.304  0.00  0.00     0.030 C 
ATOM     21  O1   11 d         -26.039 198.334 123.232  0.00  0.00    -0.273 OA
ATOM     22  C20  11 d         -27.027 199.730 124.792  0.00  0.00     0.117 C 
ENDROOT
TORSDOF 0
ENDMDL
MODEL 5
REMARK VINA RESULT:      -6.7      6.588      9.450
REMARK  0 active torsions:
REMARK  status: ('A' for Active; 'I' for Inactive)
REMARK       I    between atoms: C1_1  and  N1_2 
ROOT
ATOM      1  C1   11 d          -5.592 205.343 118.744  0.00  0.00     0.221 C 
ATOM      2  N1   11 d          -5.839 206.460 117.809  0.00  0.00    -0.309 N 
ATOM      3  C2   11 d          -4.992 206.671 116.559  0.00  0.00     0.045 C 
ATOM      4  C3   11 d          -5.167 207.840 115.739  0.00  0.00    -0.018 C 
ATOM      5  C4   11 d          -6.398 208.751 115.795  0.00  0.00     0.015 C 
ATOM      6  C5   11 d          -7.146 208.916 114.439  0.00  0.00    -0.045 A 
ATOM      7  C6   11 d          -8.260 209.795 114.359  0.00  0.00     0.008 A 
ATOM      8  C7   11 d          -8.948 210.001 113.155  0.00  0.00     0.001 A 
ATOM      9  C8   11 d          -8.555 209.322 111.998  0.00  0.00     0.000 A 
ATOM     10  C9   11 d          -7.481 208.428 112.049  0.00  0.00     0.001 A 
ATOM     11  C10  11 d          -6.790 208.221 113.252  0.00  0.00     0.008 A 
ATOM     12  C11  11 d          -7.438 208.134 116.758  0.00  0.00     0.049 C 
ATOM     13  C12  11 d          -6.962 207.475 118.079  0.00  0.00     0.034 C 
ATOM     14  C13  11 d          -8.285 206.859 118.646  0.00  0.00     0.039 C 
ATOM     15  C14  11 d          -6.441 208.546 119.063  0.00  0.00     0.039 C 
ATOM     16  C15  11 d          -5.924 210.163 116.252  0.00  0.00     0.026 C 
ATOM     17  C16  11 d          -4.146 208.213 114.824  0.00  0.00     0.010 C 
ATOM     18  C17  11 d          -3.069 207.374 114.554  0.00  0.00     0.001 C 
ATOM     19  C18  11 d          -2.990 206.144 115.192  0.00  0.00     0.002 C 
ATOM     20  C19  11 d          -3.931 205.798 116.167  0.00  0.00     0.030 C 
ATOM     21  O1   11 d          -4.645 204.512 118.545  0.00  0.00    -0.273 OA
ATOM     22  C20  11 d          -6.317 205.083 120.040  0.00  0.00     0.117 C 
ENDROOT
TORSDOF 0
ENDMDL
MODEL 6
REMARK VINA RESULT:      -6.5      8.138     10.429
REMARK  0 active torsions:
REMARK  status: ('A' for Active; 'I' for Inactive)
REMARK       I    between atoms: C1_1  and  N1_2 
ROOT
ATOM      1  C1   11 d         -15.120 203.863 121.727  0.00  0.00     0.221 C 
ATOM      2  N1   11 d         -16.396 204.037 122.451  0.00  0.00    -0.309 N 
ATOM      3  C2   11 d         -17.746 203.926 121.753  0.00  0.00     0.045 C 
ATOM      4  C3   11 d         -18.966 204.231 122.452  0.00  0.00    -0.018 C 
ATOM      5  C4   11 d         -19.081 204.318 123.977  0.00  0.00     0.015 C 
ATOM      6  C5   11 d         -20.139 203.361 124.603  0.00  0.00    -0.045 A 
ATOM      7  C6   11 d         -20.381 203.409 126.003  0.00  0.00     0.008 A 
ATOM      8  C7   11 d         -21.343 202.590 126.611  0.00  0.00     0.001 A 
ATOM      9  C8   11 d         -22.082 201.687 125.841  0.00  0.00     0.000 A 
ATOM     10  C9   11 d         -21.848 201.595 124.465  0.00  0.00     0.001 A 
ATOM     11  C10  11 d         -20.886 202.413 123.854  0.00  0.00     0.008 A 
ATOM     12  C11  11 d         -17.734 203.900 124.609  0.00  0.00     0.049 C 
ATOM     13  C12  11 d         -16.405 204.362 123.955  0.00  0.00     0.034 C 
ATOM     14  C13  11 d         -15.330 203.600 124.800  0.00  0.00     0.039 C 
ATOM     15  C14  11 d         -16.209 205.882 124.139  0.00  0.00     0.039 C 
ATOM     16  C15  11 d         -19.484 205.778 124.342  0.00  0.00     0.026 C 
ATOM     17  C16  11 d         -20.150 204.494 121.712  0.00  0.00     0.010 C 
ATOM     18  C17  11 d         -20.216 204.273 120.340  0.00  0.00     0.001 C 
ATOM     19  C18  11 d         -19.099 203.782 119.678  0.00  0.00     0.002 C 
ATOM     20  C19  11 d         -17.894 203.609 120.368  0.00  0.00     0.030 C 
ATOM     21  O1   11 d         -15.100 203.624 120.474  0.00  0.00    -0.273 OA
ATOM     22  C20  11 d         -13.735 204.023 122.300  0.00  0.00     0.117 C 
ENDROOT
TORSDOF 0
ENDMDL
MODEL 7
REMARK VINA RESULT:      -6.5      4.556      8.410
REMARK  0 active torsions:
REMARK  status: ('A' for Active; 'I' for Inactive)
REMARK       I    between atoms: C1_1  and  N1_2 
ROOT
ATOM      1  C1   11 d         -11.138 208.094 115.682  0.00  0.00     0.221 C 
ATOM      2  N1   11 d          -9.692 208.338 115.492  0.00  0.00    -0.309 N 
ATOM      3  C2   11 d          -8.705 208.297 116.652  0.00  0.00     0.045 C 
ATOM      4  C3   11 d          -7.328 208.667 116.462  0.00  0.00    -0.018 C 
ATOM      5  C4   11 d          -6.647 208.763 115.093  0.00  0.00     0.015 C 
ATOM      6  C5   11 d          -5.385 207.865 114.932  0.00  0.00    -0.045 A 
ATOM      7  C6   11 d          -4.632 207.928 113.728  0.00  0.00     0.008 A 
ATOM      8  C7   11 d          -3.472 207.162 113.545  0.00  0.00     0.001 A 
ATOM      9  C8   11 d          -3.037 206.298 114.554  0.00  0.00     0.000 A 
ATOM     10  C9   11 d          -3.770 206.191 115.740  0.00  0.00     0.001 A 
ATOM     11  C10  11 d          -4.931 206.956 115.926  0.00  0.00     0.008 A 
ATOM     12  C11  11 d          -7.631 208.275 114.006  0.00  0.00     0.049 C 
ATOM     13  C12  11 d          -9.130 208.665 114.098  0.00  0.00     0.034 C 
ATOM     14  C13  11 d          -9.765 207.849 112.922  0.00  0.00     0.039 C 
ATOM     15  C14  11 d          -9.317 210.173 113.826  0.00  0.00     0.039 C 
ATOM     16  C15  11 d          -6.208 210.243 114.882  0.00  0.00     0.026 C 
ATOM     17  C16  11 d          -6.528 208.991 117.591  0.00  0.00     0.010 C 
ATOM     18  C17  11 d          -6.977 208.770 118.889  0.00  0.00     0.001 C 
ATOM     19  C18  11 d          -8.236 208.220 119.087  0.00  0.00     0.002 C 
ATOM     20  C19  11 d          -9.078 207.984 117.996  0.00  0.00     0.030 C 
ATOM     21  O1   11 d         -11.620 207.852 116.837  0.00  0.00    -0.273 OA
ATOM     22  C20  11 d         -12.208 208.182 114.623  0.00  0.00     0.117 C 
ENDROOT
TORSDOF 0
ENDMDL
MODEL 8
REMARK VINA RESULT:      -6.4      5.714      8.413
REMARK  0 active torsions:
REMARK  status: ('A' for Active; 'I' for Inactive)
REMARK       I    between atoms: C1_1  and  N1_2 
ROOT
ATOM      1  C1   11 d          -8.996 209.252 114.529  0.00  0.00     0.221 C 
ATOM      2  N1   11 d          -7.861 208.798 115.358  0.00  0.00    -0.309 N 
ATOM      3  C2   11 d          -8.051 208.290 116.782  0.00  0.00     0.045 C 
ATOM      4  C3   11 d          -6.919 207.980 117.612  0.00  0.00    -0.018 C 
ATOM      5  C4   11 d          -5.498 207.764 117.079  0.00  0.00     0.015 C 
ATOM      6  C5   11 d          -4.873 206.384 117.440  0.00  0.00    -0.045 A 
ATOM      7  C6   11 d          -3.532 206.104 117.058  0.00  0.00     0.008 A 
ATOM      8  C7   11 d          -2.914 204.889 117.385  0.00  0.00     0.001 A 
ATOM      9  C8   11 d          -3.621 203.910 118.089  0.00  0.00     0.000 A 
ATOM     10  C9   11 d          -4.950 204.142 118.455  0.00  0.00     0.001 A 
ATOM     11  C10  11 d          -5.571 205.357 118.130  0.00  0.00     0.008 A 
ATOM     12  C11  11 d          -5.529 207.802 115.535  0.00  0.00     0.049 C 
ATOM     13  C12  11 d          -6.424 208.843 114.812  0.00  0.00     0.034 C 
ATOM     14  C13  11 d          -6.277 208.429 113.309  0.00  0.00     0.039 C 
ATOM     15  C14  11 d          -5.862 210.268 115.001  0.00  0.00     0.039 C 
ATOM     16  C15  11 d          -4.588 208.873 117.686  0.00  0.00     0.026 C 
ATOM     17  C16  11 d          -7.087 207.882 119.020  0.00  0.00     0.010 C 
ATOM     18  C17  11 d          -8.350 207.880 119.603  0.00  0.00     0.001 C 
ATOM     19  C18  11 d          -9.472 207.976 118.791  0.00  0.00     0.002 C 
ATOM     20  C19  11 d          -9.328 208.171 117.414  0.00  0.00     0.030 C 
ATOM     21  O1   11 d         -10.188 209.248 114.982  0.00  0.00    -0.273 OA
ATOM     22  C20  11 d          -8.915 209.839 113.142  0.00  0.00     0.117 C 
ENDROOT
TORSDOF 0
ENDMDL
MODEL 9
REMARK VINA RESULT:      -6.3      2.039      2.830
REMARK  0 active torsions:
REMARK  status: ('A' for Active; 'I' for Inactive)
REMARK       I    between atoms: C1_1  and  N1_2 
ROOT
ATOM      1  C1   11 d          -9.605 208.377 115.178  0.00  0.00     0.221 C 
ATOM      2  N1   11 d         -10.791 207.927 115.935  0.00  0.00    -0.309 N 
ATOM      3  C2   11 d         -12.143 207.707 115.267  0.00  0.00     0.045 C 
ATOM      4  C3   11 d         -13.310 207.398 116.048  0.00  0.00    -0.018 C 
ATOM      5  C4   11 d         -13.265 206.902 117.498  0.00  0.00     0.015 C 
ATOM      6  C5   11 d         -13.973 205.536 117.737  0.00  0.00    -0.045 A 
ATOM      7  C6   11 d         -14.055 205.014 119.057  0.00  0.00     0.008 A 
ATOM      8  C7   11 d         -14.707 203.803 119.330  0.00  0.00     0.001 A 
ATOM      9  C8   11 d         -15.284 203.068 118.290  0.00  0.00     0.000 A 
ATOM     10  C9   11 d         -15.196 203.539 116.976  0.00  0.00     0.001 A 
ATOM     11  C10  11 d         -14.545 204.751 116.700  0.00  0.00     0.008 A 
ATOM     12  C11  11 d         -11.793 206.671 117.906  0.00  0.00     0.049 C 
ATOM     13  C12  11 d         -10.705 207.680 117.451  0.00  0.00     0.034 C 
ATOM     14  C13  11 d          -9.384 206.992 117.933  0.00  0.00     0.039 C 
ATOM     15  C14  11 d         -10.871 209.027 118.187  0.00  0.00     0.039 C 
ATOM     16  C15  11 d         -13.972 207.967 118.388  0.00  0.00     0.026 C 
ATOM     17  C16  11 d         -14.600 207.573 115.479  0.00  0.00     0.010 C 
ATOM     18  C17  11 d         -14.768 207.845 114.126  0.00  0.00     0.001 C 
ATOM     19  C18  11 d         -13.649 207.947 113.311  0.00  0.00     0.002 C 
ATOM     20  C19  11 d         -12.367 207.875 113.866  0.00  0.00     0.030 C 
ATOM     21  O1   11 d          -9.671 208.614 113.926  0.00  0.00    -0.273 OA
ATOM     22  C20  11 d          -8.245 208.694 115.747  0.00  0.00     0.117 C 
ENDROOT
TORSDOF 0
ENDMDL
MODEL 10
REMARK VINA RESULT:      -6.0      5.918      8.686
REMARK  0 active torsions:
REMARK  status: ('A' for Active; 'I' for Inactive)
REMARK       I    between atoms: C1_1  and  N1_2 
ROOT
ATOM      1  C1   11 d          -2.983 206.158 115.734  0.00  0.00     0.221 C 
ATOM      2  N1   11 d          -4.152 206.822 116.348  0.00  0.00    -0.309 N 
ATOM      3  C2   11 d          -4.791 208.064 115.738  0.00  0.00     0.045 C 
ATOM      4  C3   11 d          -5.841 208.767 116.425  0.00  0.00    -0.018 C 
ATOM      5  C4   11 d          -6.655 208.176 117.581  0.00  0.00     0.015 C 
ATOM      6  C5   11 d          -8.194 208.150 117.344  0.00  0.00    -0.045 A 
ATOM      7  C6   11 d          -9.051 207.689 118.380  0.00  0.00     0.008 A 
ATOM      8  C7   11 d         -10.445 207.674 118.228  0.00  0.00     0.001 A 
ATOM      9  C8   11 d         -11.024 208.105 117.030  0.00  0.00     0.000 A 
ATOM     10  C9   11 d         -10.207 208.538 115.981  0.00  0.00     0.001 A 
ATOM     11  C10  11 d          -8.812 208.554 116.131  0.00  0.00     0.008 A 
ATOM     12  C11  11 d          -6.251 206.697 117.776  0.00  0.00     0.049 C 
ATOM     13  C12  11 d          -4.760 206.287 117.656  0.00  0.00     0.034 C 
ATOM     14  C13  11 d          -4.828 204.726 117.760  0.00  0.00     0.039 C 
ATOM     15  C14  11 d          -3.947 206.838 118.847  0.00  0.00     0.039 C 
ATOM     16  C15  11 d          -6.382 209.041 118.847  0.00  0.00     0.026 C 
ATOM     17  C16  11 d          -6.154 210.101 116.048  0.00  0.00     0.010 C 
ATOM     18  C17  11 d          -5.613 210.680 114.905  0.00  0.00     0.001 C 
ATOM     19  C18  11 d          -4.747 209.939 114.114  0.00  0.00     0.002 C 
ATOM     20  C19  11 d          -4.349 208.660 114.516  0.00  0.00     0.030 C 
ATOM     21  O1   11 d          -2.452 206.611 114.667  0.00  0.00    -0.273 OA
ATOM     22  C20  11 d          -2.231 204.975 116.289  0.00  0.00     0.117 C 
ENDROOT
TORSDOF 0
ENDMDL
