MODEL 1
REMARK VINA RESULT:      -8.1      0.000      0.000
REMARK  0 active torsions:
REMARK  status: ('A' for Active; 'I' for Inactive)
ROOT
ATOM      1  C1   11 d          -8.620 208.489 116.217  0.00  0.00     0.237 C 
ATOM      2  N1   11 d          -9.848 208.002 116.802  0.00  0.00    -0.252 N 
ATOM      3  C2   11 d          -9.518 207.718 118.179  0.00  0.00     0.237 C 
ATOM      4  O1   11 d         -10.326 207.351 119.099  0.00  0.00    -0.272 OA
ATOM      5  C3   11 d          -8.043 207.763 118.358  0.00  0.00     0.106 C 
ATOM      6  C4   11 d          -7.633 208.775 117.297  0.00  0.00     0.110 C 
ATOM      7  C5   11 d          -6.088 209.080 117.393  0.00  0.00     0.024 C 
ATOM      8  C6   11 d          -6.025 209.927 118.694  0.00  0.00    -0.037 A 
ATOM      9  C7   11 d          -6.590 209.268 119.833  0.00  0.00    -0.041 A 
ATOM     10  C8   11 d          -7.059 207.835 119.577  0.00  0.00     0.067 C 
ATOM     11  C9   11 d          -5.795 207.184 118.996  0.00  0.00    -0.041 A 
ATOM     12  C10  11 d          -5.305 207.809 117.805  0.00  0.00    -0.037 A 
ATOM     13  C11  11 d          -4.190 207.257 117.148  0.00  0.00     0.009 A 
ATOM     14  C12  11 d          -3.561 206.118 117.679  0.00  0.00     0.001 A 
ATOM     15  C13  11 d          -4.038 205.522 118.859  0.00  0.00     0.001 A 
ATOM     16  C14  11 d          -5.158 206.050 119.522  0.00  0.00     0.008 A 
ATOM     17  C15  11 d          -6.658 209.921 121.072  0.00  0.00     0.008 A 
ATOM     18  C16  11 d          -6.155 211.226 121.191  0.00  0.00     0.001 A 
ATOM     19  C17  11 d          -5.589 211.877 120.081  0.00  0.00     0.001 A 
ATOM     20  C18  11 d          -5.525 211.236 118.832  0.00  0.00     0.009 A 
ATOM     21  C19  11 d          -5.562 209.787 116.134  0.00  0.00     0.027 C 
ATOM     22  C20  11 d         -11.170 207.833 116.129  0.00  0.00     0.045 A 
ATOM     23  C21  11 d         -12.296 207.320 116.824  0.00  0.00     0.032 A 
ATOM     24  C22  11 d         -13.540 207.167 116.193  0.00  0.00     0.026 A 
ATOM     25  C23  11 d         -13.697 207.520 114.848  0.00  0.00     0.034 A 
ATOM     26 Cl1   11 d         -15.275 207.329 114.050  0.00  0.00    -0.084 Cl
ATOM     27  C24  11 d         -12.604 208.025 114.137  0.00  0.00     0.026 A 
ATOM     28  C25  11 d         -11.360 208.179 114.766  0.00  0.00     0.032 A 
ATOM     29  O2   11 d          -8.422 208.775 114.986  0.00  0.00    -0.272 OA
ENDROOT
TORSDOF 0
ENDMDL
MODEL 2
REMARK VINA RESULT:      -8.0      2.321      4.704
REMARK  0 active torsions:
REMARK  status: ('A' for Active; 'I' for Inactive)
ROOT
ATOM      1  C1   11 d          -7.910 208.527 116.869  0.00  0.00     0.237 C 
ATOM      2  N1   11 d          -7.386 208.686 115.532  0.00  0.00    -0.252 N 
ATOM      3  C2   11 d          -5.976 208.948 115.713  0.00  0.00     0.237 C 
ATOM      4  O1   11 d          -5.096 209.063 114.793  0.00  0.00    -0.272 OA
ATOM      5  C3   11 d          -5.700 209.224 117.147  0.00  0.00     0.106 C 
ATOM      6  C4   11 d          -6.781 208.401 117.835  0.00  0.00     0.110 C 
ATOM      7  C5   11 d          -6.595 208.445 119.401  0.00  0.00     0.024 C 
ATOM      8  C6   11 d          -5.338 207.550 119.584  0.00  0.00    -0.037 A 
ATOM      9  C7   11 d          -4.208 207.990 118.822  0.00  0.00    -0.041 A 
ATOM     10  C8   11 d          -4.422 209.295 118.053  0.00  0.00     0.067 C 
ATOM     11  C9   11 d          -4.882 210.250 119.165  0.00  0.00    -0.041 A 
ATOM     12  C10  11 d          -6.066 209.830 119.849  0.00  0.00    -0.037 A 
ATOM     13  C11  11 d          -6.617 210.661 120.843  0.00  0.00     0.009 A 
ATOM     14  C12  11 d          -5.987 211.874 121.165  0.00  0.00     0.001 A 
ATOM     15  C13  11 d          -4.813 212.269 120.500  0.00  0.00     0.001 A 
ATOM     16  C14  11 d          -4.256 211.461 119.496  0.00  0.00     0.008 A 
ATOM     17  C15  11 d          -3.012 207.260 118.837  0.00  0.00     0.008 A 
ATOM     18  C16  11 d          -2.925 206.096 119.618  0.00  0.00     0.001 A 
ATOM     19  C17  11 d          -4.026 205.663 120.377  0.00  0.00     0.001 A 
ATOM     20  C18  11 d          -5.233 206.382 120.362  0.00  0.00     0.009 A 
ATOM     21  C19  11 d          -7.850 207.958 120.142  0.00  0.00     0.027 C 
ATOM     22  C20  11 d          -8.137 208.598 114.245  0.00  0.00     0.045 A 
ATOM     23  C21  11 d          -7.496 208.797 112.995  0.00  0.00     0.032 A 
ATOM     24  C22  11 d          -8.201 208.708 111.786  0.00  0.00     0.026 A 
ATOM     25  C23  11 d          -9.569 208.417 111.788  0.00  0.00     0.034 A 
ATOM     26 Cl1   11 d         -10.462 208.301 110.254  0.00  0.00    -0.084 Cl
ATOM     27  C24  11 d         -10.230 208.218 113.005  0.00  0.00     0.026 A 
ATOM     28  C25  11 d          -9.526 208.307 114.215  0.00  0.00     0.032 A 
ATOM     29  O2   11 d          -9.137 208.374 117.195  0.00  0.00    -0.272 OA
ENDROOT
TORSDOF 0
ENDMDL
MODEL 3
REMARK VINA RESULT:      -8.0      2.223      2.742
REMARK  0 active torsions:
REMARK  status: ('A' for Active; 'I' for Inactive)
ROOT
ATOM      1  C1   11 d          -6.328 208.572 115.518  0.00  0.00     0.237 C 
ATOM      2  N1   11 d          -7.756 208.492 115.317  0.00  0.00    -0.252 N 
ATOM      3  C2   11 d          -8.320 208.471 116.647  0.00  0.00     0.237 C 
ATOM      4  O1   11 d          -9.561 208.497 116.952  0.00  0.00    -0.272 OA
ATOM      5  C3   11 d          -7.238 208.256 117.644  0.00  0.00     0.106 C 
ATOM      6  C4   11 d          -6.044 208.893 116.946  0.00  0.00     0.110 C 
ATOM      7  C5   11 d          -4.785 208.892 117.897  0.00  0.00     0.024 C 
ATOM      8  C6   11 d          -5.182 209.986 118.928  0.00  0.00    -0.037 A 
ATOM      9  C7   11 d          -6.435 209.735 119.573  0.00  0.00    -0.041 A 
ATOM     10  C8   11 d          -7.094 208.406 119.198  0.00  0.00     0.067 C 
ATOM     11  C9   11 d          -5.978 207.397 119.506  0.00  0.00    -0.041 A 
ATOM     12  C10  11 d          -4.767 207.619 118.778  0.00  0.00    -0.037 A 
ATOM     13  C11  11 d          -3.698 206.716 118.931  0.00  0.00     0.009 A 
ATOM     14  C12  11 d          -3.825 205.627 119.810  0.00  0.00     0.001 A 
ATOM     15  C13  11 d          -5.013 205.428 120.534  0.00  0.00     0.001 A 
ATOM     16  C14  11 d          -6.096 206.309 120.385  0.00  0.00     0.008 A 
ATOM     17  C15  11 d          -6.960 210.654 120.492  0.00  0.00     0.008 A 
ATOM     18  C16  11 d          -6.239 211.822 120.786  0.00  0.00     0.001 A 
ATOM     19  C17  11 d          -5.002 212.072 120.165  0.00  0.00     0.001 A 
ATOM     20  C18  11 d          -4.472 211.162 119.235  0.00  0.00     0.009 A 
ATOM     21  C19  11 d          -3.484 209.169 117.128  0.00  0.00     0.027 C 
ATOM     22  C20  11 d          -8.490 208.444 114.017  0.00  0.00     0.045 A 
ATOM     23  C21  11 d          -9.904 208.344 113.966  0.00  0.00     0.032 A 
ATOM     24  C22  11 d         -10.593 208.305 112.744  0.00  0.00     0.026 A 
ATOM     25  C23  11 d          -9.890 208.364 111.536  0.00  0.00     0.034 A 
ATOM     26 Cl1   11 d         -10.764 208.318 109.988  0.00  0.00    -0.084 Cl
ATOM     27  C24  11 d          -8.494 208.459 111.555  0.00  0.00     0.026 A 
ATOM     28  C25  11 d          -7.804 208.498 112.776  0.00  0.00     0.032 A 
ATOM     29  O2   11 d          -5.426 208.521 114.614  0.00  0.00    -0.272 OA
ENDROOT
TORSDOF 0
ENDMDL
MODEL 4
REMARK VINA RESULT:      -7.9      0.402      3.962
REMARK  0 active torsions:
REMARK  status: ('A' for Active; 'I' for Inactive)
ROOT
ATOM      1  C1   11 d          -9.651 207.649 117.999  0.00  0.00     0.237 C 
ATOM      2  N1   11 d          -9.981 207.960 116.628  0.00  0.00    -0.252 N 
ATOM      3  C2   11 d          -8.751 208.450 116.049  0.00  0.00     0.237 C 
ATOM      4  O1   11 d          -8.551 208.758 114.825  0.00  0.00    -0.272 OA
ATOM      5  C3   11 d          -7.759 208.699 117.127  0.00  0.00     0.106 C 
ATOM      6  C4   11 d          -8.171 207.672 118.172  0.00  0.00     0.110 C 
ATOM      7  C5   11 d          -7.153 207.672 119.377  0.00  0.00     0.024 C 
ATOM      8  C6   11 d          -5.912 206.997 118.728  0.00  0.00    -0.037 A 
ATOM      9  C7   11 d          -5.457 207.660 117.543  0.00  0.00    -0.041 A 
ATOM     10  C8   11 d          -6.211 208.945 117.197  0.00  0.00     0.067 C 
ATOM     11  C9   11 d          -6.082 209.752 118.497  0.00  0.00    -0.041 A 
ATOM     12  C10  11 d          -6.629 209.103 119.649  0.00  0.00    -0.037 A 
ATOM     13  C11  11 d          -6.625 209.778 120.884  0.00  0.00     0.009 A 
ATOM     14  C12  11 d          -6.068 211.065 120.975  0.00  0.00     0.001 A 
ATOM     15  C13  11 d          -5.517 211.687 119.840  0.00  0.00     0.001 A 
ATOM     16  C14  11 d          -5.524 211.035 118.596  0.00  0.00     0.008 A 
ATOM     17  C15  11 d          -4.379 207.145 116.809  0.00  0.00     0.008 A 
ATOM     18  C16  11 d          -3.738 205.978 117.253  0.00  0.00     0.001 A 
ATOM     19  C17  11 d          -4.172 205.326 118.421  0.00  0.00     0.001 A 
ATOM     20  C18  11 d          -5.258 205.828 119.159  0.00  0.00     0.009 A 
ATOM     21  C19  11 d          -7.717 206.942 120.606  0.00  0.00     0.027 C 
ATOM     22  C20  11 d         -11.305 207.807 115.954  0.00  0.00     0.045 A 
ATOM     23  C21  11 d         -11.495 208.173 114.597  0.00  0.00     0.032 A 
ATOM     24  C22  11 d         -12.738 208.023 113.963  0.00  0.00     0.026 A 
ATOM     25  C23  11 d         -13.829 207.502 114.666  0.00  0.00     0.034 A 
ATOM     26 Cl1   11 d         -15.404 207.309 113.861  0.00  0.00    -0.084 Cl
ATOM     27  C24  11 d         -13.673 207.135 116.007  0.00  0.00     0.026 A 
ATOM     28  C25  11 d         -12.432 207.285 116.642  0.00  0.00     0.032 A 
ATOM     29  O2   11 d         -10.462 207.273 118.913  0.00  0.00    -0.272 OA
ENDROOT
TORSDOF 0
ENDMDL
MODEL 5
REMARK VINA RESULT:      -7.4      4.225      6.487
REMARK  0 active torsions:
REMARK  status: ('A' for Active; 'I' for Inactive)
ROOT
ATOM      1  C1   11 d          -5.449 208.779 116.243  0.00  0.00     0.237 C 
ATOM      2  N1   11 d          -4.220 208.626 115.498  0.00  0.00    -0.252 N 
ATOM      3  C2   11 d          -3.171 208.716 116.487  0.00  0.00     0.237 C 
ATOM      4  O1   11 d          -1.919 208.543 116.292  0.00  0.00    -0.272 OA
ATOM      5  C3   11 d          -3.738 209.199 117.773  0.00  0.00     0.106 C 
ATOM      6  C4   11 d          -5.164 208.669 117.702  0.00  0.00     0.110 C 
ATOM      7  C5   11 d          -5.929 208.962 119.050  0.00  0.00     0.024 C 
ATOM      8  C6   11 d          -5.251 207.946 120.012  0.00  0.00    -0.037 A 
ATOM      9  C7   11 d          -3.828 208.083 120.076  0.00  0.00    -0.041 A 
ATOM     10  C8   11 d          -3.258 209.250 119.266  0.00  0.00     0.067 C 
ATOM     11  C9   11 d          -4.062 210.439 119.811  0.00  0.00    -0.041 A 
ATOM     12  C10  11 d          -5.479 210.316 119.650  0.00  0.00    -0.037 A 
ATOM     13  C11  11 d          -6.311 211.377 120.053  0.00  0.00     0.009 A 
ATOM     14  C12  11 d          -5.745 212.529 120.626  0.00  0.00     0.001 A 
ATOM     15  C13  11 d          -4.353 212.633 120.796  0.00  0.00     0.001 A 
ATOM     16  C14  11 d          -3.505 211.591 120.387  0.00  0.00     0.008 A 
ATOM     17  C15  11 d          -3.063 207.207 120.858  0.00  0.00     0.008 A 
ATOM     18  C16  11 d          -3.707 206.198 121.593  0.00  0.00     0.001 A 
ATOM     19  C17  11 d          -5.105 206.064 121.544  0.00  0.00     0.001 A 
ATOM     20  C18  11 d          -5.881 206.930 120.754  0.00  0.00     0.009 A 
ATOM     21  C19  11 d          -7.449 208.793 118.896  0.00  0.00     0.027 C 
ATOM     22  C20  11 d          -4.069 208.418 114.027  0.00  0.00     0.045 A 
ATOM     23  C21  11 d          -2.791 208.303 113.421  0.00  0.00     0.032 A 
ATOM     24  C22  11 d          -2.650 208.102 112.040  0.00  0.00     0.026 A 
ATOM     25  C23  11 d          -3.781 208.010 111.221  0.00  0.00     0.034 A 
ATOM     26 Cl1   11 d          -3.601 207.751 109.471  0.00  0.00    -0.084 Cl
ATOM     27  C24  11 d          -5.054 208.122 111.790  0.00  0.00     0.026 A 
ATOM     28  C25  11 d          -5.197 208.324 113.171  0.00  0.00     0.032 A 
ATOM     29  O2   11 d          -6.629 208.859 115.759  0.00  0.00    -0.272 OA
ENDROOT
TORSDOF 0
ENDMDL
MODEL 6
REMARK VINA RESULT:      -7.3      4.215      7.415
REMARK  0 active torsions:
REMARK  status: ('A' for Active; 'I' for Inactive)
ROOT
ATOM      1  C1   11 d          -5.113 205.841 117.903  0.00  0.00     0.237 C 
ATOM      2  N1   11 d          -3.698 205.829 117.613  0.00  0.00    -0.252 N 
ATOM      3  C2   11 d          -3.373 207.197 117.284  0.00  0.00     0.237 C 
ATOM      4  O1   11 d          -2.209 207.671 117.048  0.00  0.00    -0.272 OA
ATOM      5  C3   11 d          -4.625 207.977 117.100  0.00  0.00     0.106 C 
ATOM      6  C4   11 d          -5.582 207.249 118.035  0.00  0.00     0.110 C 
ATOM      7  C5   11 d          -6.969 208.000 118.097  0.00  0.00     0.024 C 
ATOM      8  C6   11 d          -6.596 209.259 118.928  0.00  0.00    -0.037 A 
ATOM      9  C7   11 d          -5.517 210.015 118.366  0.00  0.00    -0.041 A 
ATOM     10  C8   11 d          -5.003 209.497 117.022  0.00  0.00     0.067 C 
ATOM     11  C9   11 d          -6.289 209.455 116.183  0.00  0.00    -0.041 A 
ATOM     12  C10  11 d          -7.317 208.619 116.721  0.00  0.00    -0.037 A 
ATOM     13  C11  11 d          -8.515 208.453 116.002  0.00  0.00     0.009 A 
ATOM     14  C12  11 d          -8.694 209.125 114.781  0.00  0.00     0.001 A 
ATOM     15  C13  11 d          -7.684 209.959 114.268  0.00  0.00     0.001 A 
ATOM     16  C14  11 d          -6.476 210.126 114.964  0.00  0.00     0.008 A 
ATOM     17  C15  11 d          -5.026 211.151 119.024  0.00  0.00     0.008 A 
ATOM     18  C16  11 d          -5.611 211.552 120.236  0.00  0.00     0.001 A 
ATOM     19  C17  11 d          -6.677 210.822 120.789  0.00  0.00     0.001 A 
ATOM     20  C18  11 d          -7.171 209.676 120.143  0.00  0.00     0.009 A 
ATOM     21  C19  11 d          -8.070 207.122 118.712  0.00  0.00     0.027 C 
ATOM     22  C20  11 d          -2.773 204.657 117.648  0.00  0.00     0.045 A 
ATOM     23  C21  11 d          -1.399 204.785 117.318  0.00  0.00     0.032 A 
ATOM     24  C22  11 d          -0.529 203.685 117.358  0.00  0.00     0.026 A 
ATOM     25  C23  11 d          -1.005 202.423 117.728  0.00  0.00     0.034 A 
ATOM     26 Cl1   11 d           0.099 201.029 117.781  0.00  0.00    -0.084 Cl
ATOM     27  C24  11 d          -2.356 202.265 118.056  0.00  0.00     0.026 A 
ATOM     28  C25  11 d          -3.227 203.364 118.017  0.00  0.00     0.032 A 
ATOM     29  O2   11 d          -5.850 204.826 118.152  0.00  0.00    -0.272 OA
ENDROOT
TORSDOF 0
ENDMDL
MODEL 7
REMARK VINA RESULT:      -7.2      4.611      5.742
REMARK  0 active torsions:
REMARK  status: ('A' for Active; 'I' for Inactive)
ROOT
ATOM      1  C1   11 d          -3.151 208.653 116.629  0.00  0.00     0.237 C 
ATOM      2  N1   11 d          -4.212 208.598 115.650  0.00  0.00    -0.252 N 
ATOM      3  C2   11 d          -5.428 208.792 116.406  0.00  0.00     0.237 C 
ATOM      4  O1   11 d          -6.611 208.909 115.936  0.00  0.00    -0.272 OA
ATOM      5  C3   11 d          -5.133 208.684 117.859  0.00  0.00     0.106 C 
ATOM      6  C4   11 d          -3.691 209.167 117.920  0.00  0.00     0.110 C 
ATOM      7  C5   11 d          -3.202 209.258 119.417  0.00  0.00     0.024 C 
ATOM      8  C6   11 d          -3.984 210.504 119.918  0.00  0.00    -0.037 A 
ATOM      9  C7   11 d          -5.401 210.397 119.743  0.00  0.00    -0.041 A 
ATOM     10  C8   11 d          -5.879 209.054 119.189  0.00  0.00     0.067 C 
ATOM     11  C9   11 d          -5.258 208.059 120.181  0.00  0.00    -0.041 A 
ATOM     12  C10  11 d          -3.831 208.127 120.267  0.00  0.00    -0.037 A 
ATOM     13  C11  11 d          -3.149 207.217 121.095  0.00  0.00     0.009 A 
ATOM     14  C12  11 d          -3.874 206.273 121.841  0.00  0.00     0.001 A 
ATOM     15  C13  11 d          -5.278 206.226 121.764  0.00  0.00     0.001 A 
ATOM     16  C14  11 d          -5.976 207.117 120.932  0.00  0.00     0.008 A 
ATOM     17  C15  11 d          -6.244 211.460 120.096  0.00  0.00     0.008 A 
ATOM     18  C16  11 d          -5.688 212.631 120.636  0.00  0.00     0.001 A 
ATOM     19  C17  11 d          -4.299 212.740 120.821  0.00  0.00     0.001 A 
ATOM     20  C18  11 d          -3.443 211.685 120.461  0.00  0.00     0.009 A 
ATOM     21  C19  11 d          -1.672 209.371 119.516  0.00  0.00     0.027 C 
ATOM     22  C20  11 d          -4.081 208.388 114.177  0.00  0.00     0.045 A 
ATOM     23  C21  11 d          -5.218 208.335 113.330  0.00  0.00     0.032 A 
ATOM     24  C22  11 d          -5.093 208.144 111.946  0.00  0.00     0.026 A 
ATOM     25  C23  11 d          -3.828 207.999 111.365  0.00  0.00     0.034 A 
ATOM     26 Cl1   11 d          -3.671 207.760 109.610  0.00  0.00    -0.084 Cl
ATOM     27  C24  11 d          -2.689 208.044 112.176  0.00  0.00     0.026 A 
ATOM     28  C25  11 d          -2.812 208.235 113.560  0.00  0.00     0.032 A 
ATOM     29  O2   11 d          -1.909 208.437 116.420  0.00  0.00    -0.272 OA
ENDROOT
TORSDOF 0
ENDMDL
MODEL 8
REMARK VINA RESULT:      -7.0      3.943      7.197
REMARK  0 active torsions:
REMARK  status: ('A' for Active; 'I' for Inactive)
ROOT
ATOM      1  C1   11 d          -4.031 206.967 116.939  0.00  0.00     0.237 C 
ATOM      2  N1   11 d          -4.112 205.668 117.566  0.00  0.00    -0.252 N 
ATOM      3  C2   11 d          -5.346 205.692 118.317  0.00  0.00     0.237 C 
ATOM      4  O1   11 d          -5.871 204.719 118.957  0.00  0.00    -0.272 OA
ATOM      5  C3   11 d          -5.867 207.083 118.374  0.00  0.00     0.106 C 
ATOM      6  C4   11 d          -5.341 207.665 117.068  0.00  0.00     0.110 C 
ATOM      7  C5   11 d          -5.893 209.128 116.855  0.00  0.00     0.024 C 
ATOM      8  C6   11 d          -7.381 208.845 116.510  0.00  0.00    -0.037 A 
ATOM      9  C7   11 d          -8.062 208.074 117.506  0.00  0.00    -0.041 A 
ATOM     10  C8   11 d          -7.232 207.759 118.752  0.00  0.00     0.067 C 
ATOM     11  C9   11 d          -6.775 209.157 119.194  0.00  0.00    -0.041 A 
ATOM     12  C10  11 d          -6.017 209.868 118.210  0.00  0.00    -0.037 A 
ATOM     13  C11  11 d          -5.490 211.133 118.530  0.00  0.00     0.009 A 
ATOM     14  C12  11 d          -5.732 211.689 119.797  0.00  0.00     0.001 A 
ATOM     15  C13  11 d          -6.493 210.990 120.751  0.00  0.00     0.001 A 
ATOM     16  C14  11 d          -7.015 209.721 120.456  0.00  0.00     0.008 A 
ATOM     17  C15  11 d          -9.397 207.690 117.319  0.00  0.00     0.008 A 
ATOM     18  C16  11 d         -10.069 208.077 116.149  0.00  0.00     0.001 A 
ATOM     19  C17  11 d          -9.411 208.842 115.170  0.00  0.00     0.001 A 
ATOM     20  C18  11 d          -8.070 209.225 115.342  0.00  0.00     0.009 A 
ATOM     21  C19  11 d          -5.109 209.884 115.771  0.00  0.00     0.027 C 
ATOM     22  C20  11 d          -3.134 204.545 117.460  0.00  0.00     0.045 A 
ATOM     23  C21  11 d          -3.329 203.322 118.151  0.00  0.00     0.032 A 
ATOM     24  C22  11 d          -2.413 202.265 118.046  0.00  0.00     0.026 A 
ATOM     25  C23  11 d          -1.272 202.397 117.247  0.00  0.00     0.034 A 
ATOM     26 Cl1   11 d          -0.113 201.055 117.112  0.00  0.00    -0.084 Cl
ATOM     27  C24  11 d          -1.051 203.593 116.556  0.00  0.00     0.026 A 
ATOM     28  C25  11 d          -1.966 204.650 116.660  0.00  0.00     0.032 A 
ATOM     29  O2   11 d          -3.054 207.423 116.252  0.00  0.00    -0.272 OA
ENDROOT
TORSDOF 0
ENDMDL
MODEL 9
REMARK VINA RESULT:      -6.9      2.050      4.804
REMARK  0 active torsions:
REMARK  status: ('A' for Active; 'I' for Inactive)
ROOT
ATOM      1  C1   11 d         -10.035 206.613 119.287  0.00  0.00     0.237 C 
ATOM      2  N1   11 d          -9.844 207.276 118.018  0.00  0.00    -0.252 N 
ATOM      3  C2   11 d          -8.455 207.673 118.009  0.00  0.00     0.237 C 
ATOM      4  O1   11 d          -7.820 208.212 117.040  0.00  0.00    -0.272 OA
ATOM      5  C3   11 d          -7.880 207.504 119.370  0.00  0.00     0.106 C 
ATOM      6  C4   11 d          -8.710 206.350 119.916  0.00  0.00     0.110 C 
ATOM      7  C5   11 d          -8.175 205.909 121.333  0.00  0.00     0.024 C 
ATOM      8  C6   11 d          -6.844 205.203 120.951  0.00  0.00    -0.037 A 
ATOM      9  C7   11 d          -5.956 206.031 120.193  0.00  0.00    -0.041 A 
ATOM     10  C8   11 d          -6.438 207.468 119.986  0.00  0.00     0.067 C 
ATOM     11  C9   11 d          -6.704 207.927 121.427  0.00  0.00    -0.041 A 
ATOM     12  C10  11 d          -7.665 207.135 122.130  0.00  0.00    -0.037 A 
ATOM     13  C11  11 d          -8.036 207.504 123.437  0.00  0.00     0.009 A 
ATOM     14  C12  11 d          -7.444 208.626 124.039  0.00  0.00     0.001 A 
ATOM     15  C13  11 d          -6.486 209.388 123.347  0.00  0.00     0.001 A 
ATOM     16  C14  11 d          -6.114 209.045 122.037  0.00  0.00     0.008 A 
ATOM     17  C15  11 d          -4.735 205.524 119.725  0.00  0.00     0.008 A 
ATOM     18  C16  11 d          -4.383 204.197 120.017  0.00  0.00     0.001 A 
ATOM     19  C17  11 d          -5.245 203.380 120.769  0.00  0.00     0.001 A 
ATOM     20  C18  11 d          -6.476 203.874 121.234  0.00  0.00     0.009 A 
ATOM     21  C19  11 d          -9.186 205.024 122.079  0.00  0.00     0.027 C 
ATOM     22  C20  11 d         -10.861 207.500 116.947  0.00  0.00     0.045 A 
ATOM     23  C21  11 d         -10.539 208.190 115.750  0.00  0.00     0.032 A 
ATOM     24  C22  11 d         -11.493 208.395 114.742  0.00  0.00     0.026 A 
ATOM     25  C23  11 d         -12.798 207.917 114.899  0.00  0.00     0.034 A 
ATOM     26 Cl1   11 d         -14.007 208.174 113.619  0.00  0.00    -0.084 Cl
ATOM     27  C24  11 d         -13.146 207.236 116.070  0.00  0.00     0.026 A 
ATOM     28  C25  11 d         -12.194 207.030 117.079  0.00  0.00     0.032 A 
ATOM     29  O2   11 d         -11.140 206.180 119.763  0.00  0.00    -0.272 OA
ENDROOT
TORSDOF 0
ENDMDL
MODEL 10
REMARK VINA RESULT:      -6.9      5.953      9.780
REMARK  0 active torsions:
REMARK  status: ('A' for Active; 'I' for Inactive)
ROOT
ATOM      1  C1   11 d         -14.374 206.656 119.123  0.00  0.00     0.237 C 
ATOM      2  N1   11 d         -13.835 205.844 118.056  0.00  0.00    -0.252 N 
ATOM      3  C2   11 d         -14.293 204.504 118.340  0.00  0.00     0.237 C 
ATOM      4  O1   11 d         -14.131 203.469 117.606  0.00  0.00    -0.272 OA
ATOM      5  C3   11 d         -14.866 204.452 119.710  0.00  0.00     0.106 C 
ATOM      6  C4   11 d         -15.389 205.871 119.881  0.00  0.00     0.110 C 
ATOM      7  C5   11 d         -16.167 206.011 121.247  0.00  0.00     0.024 C 
ATOM      8  C6   11 d         -17.468 205.218 120.938  0.00  0.00    -0.037 A 
ATOM      9  C7   11 d         -17.229 203.874 120.506  0.00  0.00    -0.041 A 
ATOM     10  C8   11 d         -15.760 203.449 120.519  0.00  0.00     0.067 C 
ATOM     11  C9   11 d         -15.349 203.762 121.966  0.00  0.00    -0.041 A 
ATOM     12  C10  11 d         -15.513 205.133 122.341  0.00  0.00    -0.037 A 
ATOM     13  C11  11 d         -15.106 205.548 123.623  0.00  0.00     0.009 A 
ATOM     14  C12  11 d         -14.568 204.611 124.521  0.00  0.00     0.001 A 
ATOM     15  C13  11 d         -14.427 203.262 124.149  0.00  0.00     0.001 A 
ATOM     16  C14  11 d         -14.814 202.832 122.870  0.00  0.00     0.008 A 
ATOM     17  C15  11 d         -18.297 203.044 120.139  0.00  0.00     0.008 A 
ATOM     18  C16  11 d         -19.610 203.538 120.209  0.00  0.00     0.001 A 
ATOM     19  C17  11 d         -19.854 204.853 120.642  0.00  0.00     0.001 A 
ATOM     20  C18  11 d         -18.790 205.697 121.004  0.00  0.00     0.009 A 
ATOM     21  C19  11 d         -16.383 207.482 121.637  0.00  0.00     0.027 C 
ATOM     22  C20  11 d         -12.990 206.294 116.910  0.00  0.00     0.045 A 
ATOM     23  C21  11 d         -12.509 205.379 115.938  0.00  0.00     0.032 A 
ATOM     24  C22  11 d         -11.721 205.803 114.858  0.00  0.00     0.026 A 
ATOM     25  C23  11 d         -11.388 207.154 114.715  0.00  0.00     0.034 A 
ATOM     26 Cl1   11 d         -10.391 207.691 113.344  0.00  0.00    -0.084 Cl
ATOM     27  C24  11 d         -11.846 208.079 115.660  0.00  0.00     0.026 A 
ATOM     28  C25  11 d         -12.634 207.657 116.740  0.00  0.00     0.032 A 
ATOM     29  O2   11 d         -14.144 207.897 119.328  0.00  0.00    -0.272 OA
ENDROOT
TORSDOF 0
ENDMDL
