MODEL 1
REMARK VINA RESULT:      -7.4      0.000      0.000
REMARK  1 active torsions:
REMARK  status: ('A' for Active; 'I' for Inactive)
REMARK    1  A    between atoms: C4_5  and  N1_6 
REMARK       I    between atoms: N1_6  and  C5_7 
ROOT
ATOM      1  C1   11 d         -16.111 205.988 112.433  0.00  0.00     0.135 C 
ATOM      2  O1   11 d         -17.240 205.722 112.918  0.00  0.00    -0.297 OA
ATOM      3  C2   11 d         -14.963 205.004 112.481  0.00  0.00     0.058 C 
ATOM      4  C3   11 d         -13.799 205.691 113.235  0.00  0.00     0.043 C 
ATOM      5  C4   11 d         -13.393 207.035 112.546  0.00  0.00     0.034 C 
ATOM      6  C7   11 d         -14.646 207.966 112.541  0.00  0.00     0.043 C 
ATOM      7  C8   11 d         -15.812 207.310 111.765  0.00  0.00     0.058 C 
ATOM      8  C9   11 d         -15.362 207.011 110.313  0.00  0.00     0.017 C 
ATOM      9  C10  11 d         -14.146 206.045 110.320  0.00  0.00    -0.011 C 
ATOM     10  C11  11 d         -12.976 206.705 111.084  0.00  0.00     0.035 C 
ATOM     11  C12  11 d         -14.536 204.719 111.022  0.00  0.00     0.017 C 
ENDROOT
BRANCH   5  12
ATOM     12  N1   11 d         -12.247 207.652 113.301  0.00  0.00    -0.352 N 
ATOM     13  C5   11 d         -12.300 208.051 114.673  0.00  0.00     0.214 C 
ATOM     14  O2   11 d         -13.367 207.884 115.361  0.00  0.00    -0.274 OA
ATOM     15  C6   11 d         -11.117 208.689 115.332  0.00  0.00     0.117 C 
ATOM     16  H4   11 d         -11.319 207.815 112.781  0.00  0.00     0.163 HD
ENDBRANCH   5  12
TORSDOF 1
ENDMDL
MODEL 2
REMARK VINA RESULT:      -7.1      1.609      2.531
REMARK  1 active torsions:
REMARK  status: ('A' for Active; 'I' for Inactive)
REMARK    1  A    between atoms: C4_5  and  N1_6 
REMARK       I    between atoms: N1_6  and  C5_7 
ROOT
ATOM      1  C1   11 d         -14.951 207.011 110.264  0.00  0.00     0.135 C 
ATOM      2  O1   11 d         -15.126 207.569 109.151  0.00  0.00    -0.297 OA
ATOM      3  C2   11 d         -15.910 207.201 111.419  0.00  0.00     0.058 C 
ATOM      4  C3   11 d         -15.098 207.785 112.600  0.00  0.00     0.043 C 
ATOM      5  C4   11 d         -13.898 206.855 112.977  0.00  0.00     0.034 C 
ATOM      6  C7   11 d         -12.984 206.720 111.719  0.00  0.00     0.043 C 
ATOM      7  C8   11 d         -13.770 206.109 110.536  0.00  0.00     0.058 C 
ATOM      8  C9   11 d         -14.324 204.721 110.945  0.00  0.00     0.017 C 
ATOM      9  C10  11 d         -15.272 204.865 112.166  0.00  0.00    -0.011 C 
ATOM     10  C11  11 d         -14.484 205.464 113.355  0.00  0.00     0.035 C 
ATOM     11  C12  11 d         -16.451 205.805 111.805  0.00  0.00     0.017 C 
ENDROOT
BRANCH   5  12
ATOM     12  N1   11 d         -13.155 207.454 114.141  0.00  0.00    -0.352 N 
ATOM     13  C5   11 d         -11.971 206.898 114.720  0.00  0.00     0.214 C 
ATOM     14  O2   11 d         -11.455 205.826 114.248  0.00  0.00    -0.274 OA
ATOM     15  C6   11 d         -11.319 207.546 115.900  0.00  0.00     0.117 C 
ATOM     16  H4   11 d         -13.535 208.359 114.581  0.00  0.00     0.163 HD
ENDBRANCH   5  12
TORSDOF 1
ENDMDL
MODEL 3
REMARK VINA RESULT:      -6.8      1.732      4.817
REMARK  1 active torsions:
REMARK  status: ('A' for Active; 'I' for Inactive)
REMARK    1  A    between atoms: C4_5  and  N1_6 
REMARK       I    between atoms: N1_6  and  C5_7 
ROOT
ATOM      1  C1   11 d         -11.624 208.229 115.244  0.00  0.00     0.135 C 
ATOM      2  O1   11 d         -10.784 209.080 115.632  0.00  0.00    -0.297 OA
ATOM      3  C2   11 d         -11.214 206.954 114.541  0.00  0.00     0.058 C 
ATOM      4  C3   11 d         -11.913 206.943 113.160  0.00  0.00     0.043 C 
ATOM      5  C4   11 d         -13.465 207.059 113.311  0.00  0.00     0.034 C 
ATOM      6  C7   11 d         -13.775 208.397 114.054  0.00  0.00     0.043 C 
ATOM      7  C8   11 d         -13.110 208.413 115.450  0.00  0.00     0.058 C 
ATOM      8  C9   11 d         -13.622 207.210 116.280  0.00  0.00     0.017 C 
ATOM      9  C10  11 d         -13.269 205.879 115.563  0.00  0.00    -0.011 C 
ATOM     10  C11  11 d         -13.944 205.855 114.172  0.00  0.00     0.035 C 
ATOM     11  C12  11 d         -11.732 205.770 115.391  0.00  0.00     0.017 C 
ENDROOT
BRANCH   5  12
ATOM     12  N1   11 d         -14.099 207.023 111.946  0.00  0.00    -0.352 N 
ATOM     13  C5   11 d         -15.508 206.988 111.707  0.00  0.00     0.214 C 
ATOM     14  O2   11 d         -16.337 206.999 112.683  0.00  0.00    -0.274 OA
ATOM     15  C6   11 d         -16.047 206.918 110.312  0.00  0.00     0.117 C 
ATOM     16  H4   11 d         -13.457 207.016 111.083  0.00  0.00     0.163 HD
ENDBRANCH   5  12
TORSDOF 1
ENDMDL
MODEL 4
REMARK VINA RESULT:      -6.7      1.655      4.636
REMARK  1 active torsions:
REMARK  status: ('A' for Active; 'I' for Inactive)
REMARK    1  A    between atoms: C4_5  and  N1_6 
REMARK       I    between atoms: N1_6  and  C5_7 
ROOT
ATOM      1  C1   11 d         -13.520 207.188 116.148  0.00  0.00     0.135 C 
ATOM      2  O1   11 d         -14.110 207.257 117.257  0.00  0.00    -0.297 OA
ATOM      3  C2   11 d         -13.096 208.422 115.383  0.00  0.00     0.058 C 
ATOM      4  C3   11 d         -13.785 208.364 113.999  0.00  0.00     0.043 C 
ATOM      5  C4   11 d         -13.421 207.047 113.239  0.00  0.00     0.034 C 
ATOM      6  C7   11 d         -13.890 205.844 114.116  0.00  0.00     0.043 C 
ATOM      7  C8   11 d         -13.188 205.867 115.495  0.00  0.00     0.058 C 
ATOM      8  C9   11 d         -11.653 205.815 115.293  0.00  0.00     0.017 C 
ATOM      9  C10  11 d         -11.183 207.039 114.462  0.00  0.00    -0.011 C 
ATOM     10  C11  11 d         -11.874 207.011 113.079  0.00  0.00     0.035 C 
ATOM     11  C12  11 d         -11.562 208.349 115.200  0.00  0.00     0.017 C 
ENDROOT
BRANCH   5  12
ATOM     12  N1   11 d         -14.096 207.049 111.894  0.00  0.00    -0.352 N 
ATOM     13  C5   11 d         -15.511 206.999 111.696  0.00  0.00     0.214 C 
ATOM     14  O2   11 d         -16.309 206.962 112.696  0.00  0.00    -0.274 OA
ATOM     15  C6   11 d         -16.090 206.970 110.316  0.00  0.00     0.117 C 
ATOM     16  H4   11 d         -13.480 207.084 111.012  0.00  0.00     0.163 HD
ENDBRANCH   5  12
TORSDOF 1
ENDMDL
MODEL 5
REMARK VINA RESULT:      -6.6      2.414      3.682
REMARK  1 active torsions:
REMARK  status: ('A' for Active; 'I' for Inactive)
REMARK    1  A    between atoms: C4_5  and  N1_6 
REMARK       I    between atoms: N1_6  and  C5_7 
ROOT
ATOM      1  C1   11 d         -13.484 207.093 115.738  0.00  0.00     0.135 C 
ATOM      2  O1   11 d         -14.010 207.033 116.879  0.00  0.00    -0.297 OA
ATOM      3  C2   11 d         -13.013 205.859 115.003  0.00  0.00     0.058 C 
ATOM      4  C3   11 d         -11.503 206.042 114.716  0.00  0.00     0.043 C 
ATOM      5  C4   11 d         -11.236 207.350 113.901  0.00  0.00     0.034 C 
ATOM      6  C7   11 d         -11.767 208.553 114.742  0.00  0.00     0.043 C 
ATOM      7  C8   11 d         -13.282 208.404 115.013  0.00  0.00     0.058 C 
ATOM      8  C9   11 d         -14.042 208.317 113.666  0.00  0.00     0.017 C 
ATOM      9  C10  11 d         -13.547 207.090 112.853  0.00  0.00    -0.011 C 
ATOM     10  C11  11 d         -12.034 207.244 112.570  0.00  0.00     0.035 C 
ATOM     11  C12  11 d         -13.788 205.792 113.666  0.00  0.00     0.017 C 
ENDROOT
BRANCH   5  12
ATOM     12  N1   11 d          -9.761 207.471 113.629  0.00  0.00    -0.352 N 
ATOM     13  C5   11 d          -9.183 208.363 112.673  0.00  0.00     0.214 C 
ATOM     14  O2   11 d          -9.922 209.146 111.980  0.00  0.00    -0.274 OA
ATOM     15  C6   11 d          -7.704 208.389 112.446  0.00  0.00     0.117 C 
ATOM     16  H4   11 d          -9.084 206.843 114.182  0.00  0.00     0.163 HD
ENDBRANCH   5  12
TORSDOF 1
ENDMDL
MODEL 6
REMARK VINA RESULT:      -6.3      2.915      4.746
REMARK  1 active torsions:
REMARK  status: ('A' for Active; 'I' for Inactive)
REMARK    1  A    between atoms: C4_5  and  N1_6 
REMARK       I    between atoms: N1_6  and  C5_7 
ROOT
ATOM      1  C1   11 d         -12.011 208.037 115.026  0.00  0.00     0.135 C 
ATOM      2  O1   11 d         -11.143 208.876 115.377  0.00  0.00    -0.297 OA
ATOM      3  C2   11 d         -13.487 208.367 115.004  0.00  0.00     0.058 C 
ATOM      4  C3   11 d         -14.198 207.360 115.940  0.00  0.00     0.043 C 
ATOM      5  C4   11 d         -13.917 205.885 115.503  0.00  0.00     0.034 C 
ATOM      6  C7   11 d         -12.374 205.657 115.550  0.00  0.00     0.043 C 
ATOM      7  C8   11 d         -11.648 206.634 114.597  0.00  0.00     0.058 C 
ATOM      8  C9   11 d         -12.173 206.433 113.153  0.00  0.00     0.017 C 
ATOM      9  C10  11 d         -13.700 206.709 113.099  0.00  0.00    -0.011 C 
ATOM     10  C11  11 d         -14.429 205.724 114.042  0.00  0.00     0.035 C 
ATOM     11  C12  11 d         -13.985 208.163 113.554  0.00  0.00     0.017 C 
ENDROOT
BRANCH   5  12
ATOM     12  N1   11 d         -14.645 204.947 116.428  0.00  0.00    -0.352 N 
ATOM     13  C5   11 d         -14.298 204.727 117.798  0.00  0.00     0.214 C 
ATOM     14  O2   11 d         -13.317 205.352 118.331  0.00  0.00    -0.274 OA
ATOM     15  C6   11 d         -15.061 203.747 118.633  0.00  0.00     0.117 C 
ATOM     16  H4   11 d         -15.484 204.394 116.042  0.00  0.00     0.163 HD
ENDBRANCH   5  12
TORSDOF 1
ENDMDL
MODEL 7
REMARK VINA RESULT:      -6.2      2.470      4.187
REMARK  1 active torsions:
REMARK  status: ('A' for Active; 'I' for Inactive)
REMARK    1  A    between atoms: C4_5  and  N1_6 
REMARK       I    between atoms: N1_6  and  C5_7 
ROOT
ATOM      1  C1   11 d         -12.965 206.597 116.387  0.00  0.00     0.135 C 
ATOM      2  O1   11 d         -12.571 206.190 117.510  0.00  0.00    -0.297 OA
ATOM      3  C2   11 d         -13.329 205.646 115.269  0.00  0.00     0.058 C 
ATOM      4  C3   11 d         -12.418 205.982 114.063  0.00  0.00     0.043 C 
ATOM      5  C4   11 d         -12.574 207.479 113.637  0.00  0.00     0.034 C 
ATOM      6  C7   11 d         -12.186 208.367 114.860  0.00  0.00     0.043 C 
ATOM      7  C8   11 d         -13.106 208.067 116.067  0.00  0.00     0.058 C 
ATOM      8  C9   11 d         -14.581 208.322 115.668  0.00  0.00     0.017 C 
ATOM      9  C10  11 d         -14.979 207.401 114.483  0.00  0.00    -0.011 C 
ATOM     10  C11  11 d         -14.069 207.709 113.271  0.00  0.00     0.035 C 
ATOM     11  C12  11 d         -14.804 205.916 114.892  0.00  0.00     0.017 C 
ENDROOT
BRANCH   5  12
ATOM     12  N1   11 d         -11.688 207.750 112.451  0.00  0.00    -0.352 N 
ATOM     13  C5   11 d         -11.899 207.216 111.141  0.00  0.00     0.214 C 
ATOM     14  O2   11 d         -12.901 206.458 110.899  0.00  0.00    -0.274 OA
ATOM     15  C6   11 d         -10.942 207.514 110.030  0.00  0.00     0.117 C 
ATOM     16  H4   11 d         -10.829 208.385 112.587  0.00  0.00     0.163 HD
ENDBRANCH   5  12
TORSDOF 1
ENDMDL
MODEL 8
REMARK VINA RESULT:      -6.1      2.706      4.059
REMARK  1 active torsions:
REMARK  status: ('A' for Active; 'I' for Inactive)
REMARK    1  A    between atoms: C4_5  and  N1_6 
REMARK       I    between atoms: N1_6  and  C5_7 
ROOT
ATOM      1  C1   11 d         -12.537 207.543 113.459  0.00  0.00     0.135 C 
ATOM      2  O1   11 d         -11.502 208.099 113.011  0.00  0.00    -0.297 OA
ATOM      3  C2   11 d         -13.804 208.316 113.752  0.00  0.00     0.058 C 
ATOM      4  C3   11 d         -14.137 208.105 115.249  0.00  0.00     0.043 C 
ATOM      5  C4   11 d         -14.282 206.586 115.588  0.00  0.00     0.034 C 
ATOM      6  C7   11 d         -12.931 205.886 115.240  0.00  0.00     0.043 C 
ATOM      7  C8   11 d         -12.596 206.059 113.740  0.00  0.00     0.058 C 
ATOM      8  C9   11 d         -13.741 205.464 112.884  0.00  0.00     0.017 C 
ATOM      9  C10  11 d         -15.075 206.195 113.196  0.00  0.00    -0.011 C 
ATOM     10  C11  11 d         -15.418 206.012 114.692  0.00  0.00     0.035 C 
ATOM     11  C12  11 d         -14.929 207.706 112.883  0.00  0.00     0.017 C 
ENDROOT
BRANCH   5  12
ATOM     12  N1   11 d         -14.626 206.435 117.046  0.00  0.00    -0.352 N 
ATOM     13  C5   11 d         -13.830 206.936 118.123  0.00  0.00     0.214 C 
ATOM     14  O2   11 d         -12.746 207.576 117.891  0.00  0.00    -0.274 OA
ATOM     15  C6   11 d         -14.236 206.707 119.545  0.00  0.00     0.117 C 
ATOM     16  H4   11 d         -15.528 205.910 117.308  0.00  0.00     0.163 HD
ENDBRANCH   5  12
TORSDOF 1
ENDMDL
MODEL 9
REMARK VINA RESULT:      -6.0      2.586      3.724
REMARK  1 active torsions:
REMARK  status: ('A' for Active; 'I' for Inactive)
REMARK    1  A    between atoms: C4_5  and  N1_6 
REMARK       I    between atoms: N1_6  and  C5_7 
ROOT
ATOM      1  C1   11 d         -14.022 205.710 113.252  0.00  0.00     0.135 C 
ATOM      2  O1   11 d         -14.480 204.916 112.391  0.00  0.00    -0.297 OA
ATOM      3  C2   11 d         -12.658 206.349 113.113  0.00  0.00     0.058 C 
ATOM      4  C3   11 d         -11.832 205.947 114.359  0.00  0.00     0.043 C 
ATOM      5  C4   11 d         -12.552 206.378 115.678  0.00  0.00     0.034 C 
ATOM      6  C7   11 d         -13.945 205.675 115.715  0.00  0.00     0.043 C 
ATOM      7  C8   11 d         -14.798 206.089 114.492  0.00  0.00     0.058 C 
ATOM      8  C9   11 d         -14.975 207.627 114.483  0.00  0.00     0.017 C 
ATOM      9  C10  11 d         -13.590 208.324 114.397  0.00  0.00    -0.011 C 
ATOM     10  C11  11 d         -12.741 207.922 115.625  0.00  0.00     0.035 C 
ATOM     11  C12  11 d         -12.863 207.881 113.102  0.00  0.00     0.017 C 
ENDROOT
BRANCH   5  12
ATOM     12  N1   11 d         -11.701 205.986 116.857  0.00  0.00    -0.352 N 
ATOM     13  C5   11 d         -11.988 206.332 118.214  0.00  0.00     0.214 C 
ATOM     14  O2   11 d         -13.033 207.010 118.509  0.00  0.00    -0.274 OA
ATOM     15  C6   11 d         -11.064 205.926 119.319  0.00  0.00     0.117 C 
ATOM     16  H4   11 d         -10.810 205.411 116.677  0.00  0.00     0.163 HD
ENDBRANCH   5  12
TORSDOF 1
ENDMDL
MODEL 10
REMARK VINA RESULT:      -6.0      2.784      3.939
REMARK  1 active torsions:
REMARK  status: ('A' for Active; 'I' for Inactive)
REMARK    1  A    between atoms: C4_5  and  N1_6 
REMARK       I    between atoms: N1_6  and  C5_7 
ROOT
ATOM      1  C1   11 d         -14.300 208.229 115.194  0.00  0.00     0.135 C 
ATOM      2  O1   11 d         -15.222 209.070 115.349  0.00  0.00    -0.297 OA
ATOM      3  C2   11 d         -14.343 206.861 115.838  0.00  0.00     0.058 C 
ATOM      4  C3   11 d         -13.083 206.732 116.728  0.00  0.00     0.043 C 
ATOM      5  C4   11 d         -11.777 206.952 115.897  0.00  0.00     0.034 C 
ATOM      6  C7   11 d         -11.842 208.381 115.271  0.00  0.00     0.043 C 
ATOM      7  C8   11 d         -13.079 208.520 114.353  0.00  0.00     0.058 C 
ATOM      8  C9   11 d         -13.014 207.450 113.235  0.00  0.00     0.017 C 
ATOM      9  C10  11 d         -12.999 206.028 113.857  0.00  0.00    -0.011 C 
ATOM     10  C11  11 d         -11.756 205.883 114.766  0.00  0.00     0.035 C 
ATOM     11  C12  11 d         -14.281 205.813 114.702  0.00  0.00     0.017 C 
ENDROOT
BRANCH   5  12
ATOM     12  N1   11 d         -10.583 206.795 116.799  0.00  0.00    -0.352 N 
ATOM     13  C5   11 d         -10.407 207.486 118.039  0.00  0.00     0.214 C 
ATOM     14  O2   11 d         -11.300 208.297 118.467  0.00  0.00    -0.274 OA
ATOM     15  C6   11 d          -9.168 207.291 118.855  0.00  0.00     0.117 C 
ATOM     16  H4   11 d          -9.798 206.124 116.499  0.00  0.00     0.163 HD
ENDBRANCH   5  12
TORSDOF 1
ENDMDL
