MODEL 1
REMARK VINA RESULT:      -7.5      0.000      0.000
REMARK  2 active torsions:
REMARK  status: ('A' for Active; 'I' for Inactive)
REMARK    1  A    between atoms: N1_2  and  C2_3 
REMARK    2  A    between atoms: C2_3  and  C3_4 
ROOT
ATOM      1  C1   11 d         -10.350 207.973 111.960  0.00  0.00     0.250 C 
ATOM      2  N1   11 d         -11.535 207.321 112.388  0.00  0.00    -0.345 N 
ATOM      3  C9   11 d         -12.164 207.779 113.667  0.00  0.00     0.153 C 
ATOM      4  C10  11 d         -11.071 207.927 114.732  0.00  0.00     0.253 C 
ATOM      5  N2   11 d          -9.963 208.810 114.249  0.00  0.00    -0.061 N 
ATOM      6  C11  11 d          -9.302 208.322 112.991  0.00  0.00     0.273 C 
ATOM      7  C12  11 d          -8.270 209.343 112.480  0.00  0.00     0.050 C 
ATOM      8  O1   11 d         -10.254 208.383 110.753  0.00  0.00    -0.271 OA
ATOM      9  H12  11 d         -10.353 209.799 114.090  0.00  0.00     0.278 HD
ATOM     10  H13  11 d          -9.224 208.885 115.024  0.00  0.00     0.278 HD
ENDROOT
BRANCH   2  11
ATOM     11  C2   11 d         -12.098 206.216 111.536  0.00  0.00     0.164 C 
BRANCH  11  12
ATOM     12  C3   11 d         -13.596 206.233 111.337  0.00  0.00    -0.040 A 
ATOM     13  C4   11 d         -14.172 207.115 110.398  0.00  0.00     0.009 A 
ATOM     14  C5   11 d         -15.563 207.165 110.229  0.00  0.00     0.001 A 
ATOM     15  C6   11 d         -16.395 206.350 111.009  0.00  0.00     0.000 A 
ATOM     16  C7   11 d         -15.835 205.479 111.955  0.00  0.00     0.001 A 
ATOM     17  C8   11 d         -14.441 205.417 112.116  0.00  0.00     0.009 A 
ENDBRANCH  11  12
ENDBRANCH   2  11
TORSDOF 2
ENDMDL
MODEL 2
REMARK VINA RESULT:      -7.2      3.044      3.970
REMARK  2 active torsions:
REMARK  status: ('A' for Active; 'I' for Inactive)
REMARK    1  A    between atoms: N1_2  and  C2_3 
REMARK    2  A    between atoms: C2_3  and  C3_4 
ROOT
ATOM      1  C1   11 d         -13.134 206.413 115.830  0.00  0.00     0.250 C 
ATOM      2  N1   11 d         -13.295 206.893 114.505  0.00  0.00    -0.345 N 
ATOM      3  C9   11 d         -13.514 208.360 114.312  0.00  0.00     0.153 C 
ATOM      4  C10  11 d         -14.566 208.842 115.320  0.00  0.00     0.253 C 
ATOM      5  N2   11 d         -14.187 208.461 116.718  0.00  0.00    -0.061 N 
ATOM      6  C11  11 d         -14.014 206.983 116.919  0.00  0.00     0.273 C 
ATOM      7  C12  11 d         -13.494 206.677 118.336  0.00  0.00     0.050 C 
ATOM      8  O1   11 d         -12.162 205.630 116.107  0.00  0.00    -0.271 OA
ATOM      9  H12  11 d         -13.276 208.969 116.979  0.00  0.00     0.278 HD
ATOM     10  H13  11 d         -14.947 208.817 117.386  0.00  0.00     0.278 HD
ENDROOT
BRANCH   2  11
ATOM     11  C2   11 d         -13.229 205.907 113.370  0.00  0.00     0.164 C 
BRANCH  11  12
ATOM     12  C3   11 d         -14.023 206.269 112.135  0.00  0.00    -0.040 A 
ATOM     13  C4   11 d         -13.359 206.750 110.987  0.00  0.00     0.009 A 
ATOM     14  C5   11 d         -14.087 207.121 109.847  0.00  0.00     0.001 A 
ATOM     15  C6   11 d         -15.486 207.036 109.849  0.00  0.00     0.000 A 
ATOM     16  C7   11 d         -16.158 206.571 110.989  0.00  0.00     0.001 A 
ATOM     17  C8   11 d         -15.431 206.186 112.127  0.00  0.00     0.009 A 
ENDBRANCH  11  12
ENDBRANCH   2  11
TORSDOF 2
ENDMDL
MODEL 3
REMARK VINA RESULT:      -6.8      2.392      3.004
REMARK  2 active torsions:
REMARK  status: ('A' for Active; 'I' for Inactive)
REMARK    1  A    between atoms: N1_2  and  C2_3 
REMARK    2  A    between atoms: C2_3  and  C3_4 
ROOT
ATOM      1  C1   11 d         -12.061 207.470 114.822  0.00  0.00     0.250 C 
ATOM      2  N1   11 d         -13.291 206.771 114.714  0.00  0.00    -0.345 N 
ATOM      3  C9   11 d         -14.359 207.072 115.718  0.00  0.00     0.153 C 
ATOM      4  C10  11 d         -13.732 207.092 117.118  0.00  0.00     0.253 C 
ATOM      5  N2   11 d         -12.564 208.027 117.173  0.00  0.00    -0.061 N 
ATOM      6  C11  11 d         -11.473 207.694 116.196  0.00  0.00     0.273 C 
ATOM      7  C12  11 d         -10.372 208.770 116.213  0.00  0.00     0.050 C 
ATOM      8  O1   11 d         -11.553 208.022 113.787  0.00  0.00    -0.271 OA
ATOM      9  H12  11 d         -12.914 209.027 116.994  0.00  0.00     0.278 HD
ATOM     10  H13  11 d         -12.159 208.009 118.167  0.00  0.00     0.278 HD
ENDROOT
BRANCH   2  11
ATOM     11  C2   11 d         -13.458 205.776 113.598  0.00  0.00     0.164 C 
BRANCH  11  12
ATOM     12  C3   11 d         -14.366 206.200 112.466  0.00  0.00    -0.040 A 
ATOM     13  C4   11 d         -15.731 205.842 112.486  0.00  0.00     0.009 A 
ATOM     14  C5   11 d         -16.575 206.199 111.425  0.00  0.00     0.001 A 
ATOM     15  C6   11 d         -16.063 206.900 110.325  0.00  0.00     0.000 A 
ATOM     16  C7   11 d         -14.705 207.250 110.288  0.00  0.00     0.001 A 
ATOM     17  C8   11 d         -13.860 206.906 111.355  0.00  0.00     0.009 A 
ENDBRANCH  11  12
ENDBRANCH   2  11
TORSDOF 2
ENDMDL
MODEL 4
REMARK VINA RESULT:      -6.8      3.071      4.948
REMARK  2 active torsions:
REMARK  status: ('A' for Active; 'I' for Inactive)
REMARK    1  A    between atoms: N1_2  and  C2_3 
REMARK    2  A    between atoms: C2_3  and  C3_4 
ROOT
ATOM      1  C1   11 d         -12.390 206.842 116.380  0.00  0.00     0.250 C 
ATOM      2  N1   11 d         -12.386 207.171 115.000  0.00  0.00    -0.345 N 
ATOM      3  C9   11 d         -13.123 208.400 114.570  0.00  0.00     0.153 C 
ATOM      4  C10  11 d         -14.499 208.416 115.247  0.00  0.00     0.253 C 
ATOM      5  N2   11 d         -14.370 208.273 116.732  0.00  0.00    -0.061 N 
ATOM      6  C11  11 d         -13.672 207.014 117.162  0.00  0.00     0.273 C 
ATOM      7  C12  11 d         -13.455 206.998 118.686  0.00  0.00     0.050 C 
ATOM      8  O1   11 d         -11.291 206.554 116.967  0.00  0.00    -0.271 OA
ATOM      9  H12  11 d         -13.843 209.126 117.118  0.00  0.00     0.278 HD
ATOM     10  H13  11 d         -15.354 208.290 117.163  0.00  0.00     0.278 HD
ENDROOT
BRANCH   2  11
ATOM     11  C2   11 d         -11.639 206.275 114.050  0.00  0.00     0.164 C 
BRANCH  11  12
ATOM     12  C3   11 d         -11.236 206.899 112.733  0.00  0.00    -0.040 A 
ATOM     13  C4   11 d         -10.194 207.850 112.694  0.00  0.00     0.009 A 
ATOM     14  C5   11 d          -9.835 208.462 111.484  0.00  0.00     0.001 A 
ATOM     15  C6   11 d         -10.524 208.146 110.306  0.00  0.00     0.000 A 
ATOM     16  C7   11 d         -11.570 207.212 110.334  0.00  0.00     0.001 A 
ATOM     17  C8   11 d         -11.923 206.588 111.542  0.00  0.00     0.009 A 
ENDBRANCH  11  12
ENDBRANCH   2  11
TORSDOF 2
ENDMDL
MODEL 5
REMARK VINA RESULT:      -6.7      1.578      2.200
REMARK  2 active torsions:
REMARK  status: ('A' for Active; 'I' for Inactive)
REMARK    1  A    between atoms: N1_2  and  C2_3 
REMARK    2  A    between atoms: C2_3  and  C3_4 
ROOT
ATOM      1  C1   11 d         -10.724 208.160 112.890  0.00  0.00     0.250 C 
ATOM      2  N1   11 d         -11.887 207.478 112.446  0.00  0.00    -0.345 N 
ATOM      3  C9   11 d         -11.810 206.733 111.151  0.00  0.00     0.153 C 
ATOM      4  C10  11 d         -11.128 207.623 110.105  0.00  0.00     0.253 C 
ATOM      5  N2   11 d          -9.805 208.119 110.600  0.00  0.00    -0.061 N 
ATOM      6  C11  11 d          -9.891 208.908 111.876  0.00  0.00     0.273 C 
ATOM      7  C12  11 d          -8.487 209.268 112.396  0.00  0.00     0.050 C 
ATOM      8  O1   11 d         -10.322 208.008 114.095  0.00  0.00    -0.271 OA
ATOM      9  H12  11 d          -9.151 207.278 110.741  0.00  0.00     0.278 HD
ATOM     10  H13  11 d          -9.365 208.735 109.839  0.00  0.00     0.278 HD
ENDROOT
BRANCH   2  11
ATOM     11  C2   11 d         -13.124 207.535 113.300  0.00  0.00     0.164 C 
BRANCH  11  12
ATOM     12  C3   11 d         -14.401 207.065 112.642  0.00  0.00    -0.040 A 
ATOM     13  C4   11 d         -14.704 207.464 111.323  0.00  0.00     0.009 A 
ATOM     14  C5   11 d         -15.902 207.063 110.715  0.00  0.00     0.001 A 
ATOM     15  C6   11 d         -16.819 206.275 111.423  0.00  0.00     0.000 A 
ATOM     16  C7   11 d         -16.536 205.882 112.740  0.00  0.00     0.001 A 
ATOM     17  C8   11 d         -15.331 206.272 113.346  0.00  0.00     0.009 A 
ENDBRANCH  11  12
ENDBRANCH   2  11
TORSDOF 2
ENDMDL
MODEL 6
REMARK VINA RESULT:      -6.6      3.712      4.838
REMARK  2 active torsions:
REMARK  status: ('A' for Active; 'I' for Inactive)
REMARK    1  A    between atoms: N1_2  and  C2_3 
REMARK    2  A    between atoms: C2_3  and  C3_4 
ROOT
ATOM      1  C1   11 d         -14.582 205.301 115.822  0.00  0.00     0.250 C 
ATOM      2  N1   11 d         -13.771 206.186 115.065  0.00  0.00    -0.345 N 
ATOM      3  C9   11 d         -12.297 205.930 115.030  0.00  0.00     0.153 C 
ATOM      4  C10  11 d         -11.809 205.647 116.456  0.00  0.00     0.253 C 
ATOM      5  N2   11 d         -12.603 204.546 117.089  0.00  0.00    -0.061 N 
ATOM      6  C11  11 d         -14.076 204.826 117.165  0.00  0.00     0.273 C 
ATOM      7  C12  11 d         -14.843 203.602 117.699  0.00  0.00     0.050 C 
ATOM      8  O1   11 d         -15.640 204.808 115.301  0.00  0.00    -0.271 OA
ATOM      9  H12  11 d         -12.437 203.639 116.536  0.00  0.00     0.278 HD
ATOM     10  H13  11 d         -12.228 204.381 118.081  0.00  0.00     0.278 HD
ENDROOT
BRANCH   2  11
ATOM     11  C2   11 d         -14.434 207.322 114.335  0.00  0.00     0.164 C 
BRANCH  11  12
ATOM     12  C3   11 d         -14.792 207.060 112.890  0.00  0.00    -0.040 A 
ATOM     13  C4   11 d         -13.806 207.174 111.888  0.00  0.00     0.009 A 
ATOM     14  C5   11 d         -14.134 206.967 110.540  0.00  0.00     0.001 A 
ATOM     15  C6   11 d         -15.453 206.663 110.177  0.00  0.00     0.000 A 
ATOM     16  C7   11 d         -16.445 206.560 111.163  0.00  0.00     0.001 A 
ATOM     17  C8   11 d         -16.116 206.753 112.515  0.00  0.00     0.009 A 
ENDBRANCH  11  12
ENDBRANCH   2  11
TORSDOF 2
ENDMDL
MODEL 7
REMARK VINA RESULT:      -6.6      2.302      3.099
REMARK  2 active torsions:
REMARK  status: ('A' for Active; 'I' for Inactive)
REMARK    1  A    between atoms: N1_2  and  C2_3 
REMARK    2  A    between atoms: C2_3  and  C3_4 
ROOT
ATOM      1  C1   11 d         -11.650 206.967 115.744  0.00  0.00     0.250 C 
ATOM      2  N1   11 d         -12.107 206.491 114.488  0.00  0.00    -0.345 N 
ATOM      3  C9   11 d         -11.141 206.489 113.345  0.00  0.00     0.153 C 
ATOM      4  C10  11 d         -10.409 207.837 113.312  0.00  0.00     0.253 C 
ATOM      5  N2   11 d          -9.783 208.142 114.638  0.00  0.00    -0.061 N 
ATOM      6  C11  11 d         -10.762 208.190 115.775  0.00  0.00     0.273 C 
ATOM      7  C12  11 d         -10.035 208.373 117.120  0.00  0.00     0.050 C 
ATOM      8  O1   11 d         -11.867 206.280 116.800  0.00  0.00    -0.271 OA
ATOM      9  H12  11 d          -9.029 207.404 114.842  0.00  0.00     0.278 HD
ATOM     10  H13  11 d          -9.283 209.090 114.568  0.00  0.00     0.278 HD
ENDROOT
BRANCH   2  11
ATOM     11  C2   11 d         -13.528 206.008 114.375  0.00  0.00     0.164 C 
BRANCH  11  12
ATOM     12  C3   11 d         -14.180 206.186 113.023  0.00  0.00    -0.040 A 
ATOM     13  C4   11 d         -14.326 205.079 112.161  0.00  0.00     0.009 A 
ATOM     14  C5   11 d         -14.898 205.238 110.890  0.00  0.00     0.001 A 
ATOM     15  C6   11 d         -15.311 206.506 110.459  0.00  0.00     0.000 A 
ATOM     16  C7   11 d         -15.158 207.617 111.303  0.00  0.00     0.001 A 
ATOM     17  C8   11 d         -14.599 207.458 112.581  0.00  0.00     0.009 A 
ENDBRANCH  11  12
ENDBRANCH   2  11
TORSDOF 2
ENDMDL
MODEL 8
REMARK VINA RESULT:      -6.5      2.943      4.711
REMARK  2 active torsions:
REMARK  status: ('A' for Active; 'I' for Inactive)
REMARK    1  A    between atoms: N1_2  and  C2_3 
REMARK    2  A    between atoms: C2_3  and  C3_4 
ROOT
ATOM      1  C1   11 d          -7.415 209.687 114.220  0.00  0.00     0.250 C 
ATOM      2  N1   11 d          -7.638 209.179 112.914  0.00  0.00    -0.345 N 
ATOM      3  C9   11 d          -6.629 208.227 112.351  0.00  0.00     0.153 C 
ATOM      4  C10  11 d          -5.223 208.781 112.612  0.00  0.00     0.253 C 
ATOM      5  N2   11 d          -5.026 209.087 114.064  0.00  0.00    -0.061 N 
ATOM      6  C11  11 d          -6.010 210.080 114.615  0.00  0.00     0.273 C 
ATOM      7  C12  11 d          -5.834 210.243 116.136  0.00  0.00     0.050 C 
ATOM      8  O1   11 d          -8.362 209.663 115.079  0.00  0.00    -0.271 OA
ATOM      9  H12  11 d          -5.088 208.171 114.622  0.00  0.00     0.278 HD
ATOM     10  H13  11 d          -4.032 209.470 114.200  0.00  0.00     0.278 HD
ENDROOT
BRANCH   2  11
ATOM     11  C2   11 d          -8.871 209.617 112.172  0.00  0.00     0.164 C 
BRANCH  11  12
ATOM     12  C3   11 d          -9.898 208.540 111.907  0.00  0.00    -0.040 A 
ATOM     13  C4   11 d         -10.339 208.296 110.589  0.00  0.00     0.009 A 
ATOM     14  C5   11 d         -11.317 207.323 110.335  0.00  0.00     0.001 A 
ATOM     15  C6   11 d         -11.879 206.599 111.394  0.00  0.00     0.000 A 
ATOM     16  C7   11 d         -11.459 206.842 112.710  0.00  0.00     0.001 A 
ATOM     17  C8   11 d         -10.470 207.805 112.967  0.00  0.00     0.009 A 
ENDBRANCH  11  12
ENDBRANCH   2  11
TORSDOF 2
ENDMDL
MODEL 9
REMARK VINA RESULT:      -6.3      2.287      5.971
REMARK  2 active torsions:
REMARK  status: ('A' for Active; 'I' for Inactive)
REMARK    1  A    between atoms: N1_2  and  C2_3 
REMARK    2  A    between atoms: C2_3  and  C3_4 
ROOT
ATOM      1  C1   11 d         -14.801 206.243 112.713  0.00  0.00     0.250 C 
ATOM      2  N1   11 d         -13.464 206.498 112.312  0.00  0.00    -0.345 N 
ATOM      3  C9   11 d         -13.246 207.221 111.020  0.00  0.00     0.153 C 
ATOM      4  C10  11 d         -14.150 206.604 109.946  0.00  0.00     0.253 C 
ATOM      5  N2   11 d         -15.578 206.577 110.395  0.00  0.00    -0.061 N 
ATOM      6  C11  11 d         -15.801 205.809 111.666  0.00  0.00     0.273 C 
ATOM      7  C12  11 d         -17.261 205.938 112.138  0.00  0.00     0.050 C 
ATOM      8  O1   11 d         -15.169 206.524 113.905  0.00  0.00    -0.271 OA
ATOM      9  H12  11 d         -15.920 207.588 110.520  0.00  0.00     0.278 HD
ATOM     10  H13  11 d         -16.173 206.140 109.615  0.00  0.00     0.278 HD
ENDROOT
BRANCH   2  11
ATOM     11  C2   11 d         -12.344 206.036 113.204  0.00  0.00     0.164 C 
BRANCH  11  12
ATOM     12  C3   11 d         -11.424 207.118 113.722  0.00  0.00    -0.040 A 
ATOM     13  C4   11 d         -11.705 207.755 114.949  0.00  0.00     0.009 A 
ATOM     14  C5   11 d         -10.878 208.784 115.422  0.00  0.00     0.001 A 
ATOM     15  C6   11 d          -9.774 209.201 114.668  0.00  0.00     0.000 A 
ATOM     16  C7   11 d          -9.492 208.584 113.440  0.00  0.00     0.001 A 
ATOM     17  C8   11 d         -10.310 207.544 112.970  0.00  0.00     0.009 A 
ENDBRANCH  11  12
ENDBRANCH   2  11
TORSDOF 2
ENDMDL
MODEL 10
REMARK VINA RESULT:      -5.8      2.493      3.220
REMARK  2 active torsions:
REMARK  status: ('A' for Active; 'I' for Inactive)
REMARK    1  A    between atoms: N1_2  and  C2_3 
REMARK    2  A    between atoms: C2_3  and  C3_4 
ROOT
ATOM      1  C1   11 d          -9.525 208.893 114.844  0.00  0.00     0.250 C 
ATOM      2  N1   11 d         -10.717 208.289 114.367  0.00  0.00    -0.345 N 
ATOM      3  C9   11 d         -10.658 207.553 113.065  0.00  0.00     0.153 C 
ATOM      4  C10  11 d          -9.900 208.410 112.044  0.00  0.00     0.253 C 
ATOM      5  N2   11 d          -8.560 208.820 112.573  0.00  0.00    -0.061 N 
ATOM      6  C11  11 d          -8.625 209.600 113.855  0.00  0.00     0.273 C 
ATOM      7  C12  11 d          -7.214 209.868 114.409  0.00  0.00     0.050 C 
ATOM      8  O1   11 d          -9.159 208.705 116.054  0.00  0.00    -0.271 OA
ATOM      9  H12  11 d          -7.962 207.939 112.717  0.00  0.00     0.278 HD
ATOM     10  H13  11 d          -8.067 209.415 111.828  0.00  0.00     0.278 HD
ENDROOT
BRANCH   2  11
ATOM     11  C2   11 d         -11.967 208.413 115.195  0.00  0.00     0.164 C 
BRANCH  11  12
ATOM     12  C3   11 d         -13.142 207.576 114.744  0.00  0.00    -0.040 A 
ATOM     13  C4   11 d         -14.006 208.058 113.738  0.00  0.00     0.009 A 
ATOM     14  C5   11 d         -15.120 207.306 113.336  0.00  0.00     0.001 A 
ATOM     15  C6   11 d         -15.394 206.076 113.948  0.00  0.00     0.000 A 
ATOM     16  C7   11 d         -14.550 205.592 114.959  0.00  0.00     0.001 A 
ATOM     17  C8   11 d         -13.427 206.336 115.353  0.00  0.00     0.009 A 
ENDBRANCH  11  12
ENDBRANCH   2  11
TORSDOF 2
ENDMDL
