MODEL 1
REMARK VINA RESULT:      -8.1      0.000      0.000
REMARK  6 active torsions:
REMARK  status: ('A' for Active; 'I' for Inactive)
REMARK    1  A    between atoms: C1_1  and  C2_2 
REMARK    2  A    between atoms: C1_1  and  O4_20 
REMARK    3  A    between atoms: C5_5  and  N1_6 
REMARK    4  A    between atoms: C6_7  and  C7_8 
REMARK    5  A    between atoms: C9_10  and  N2_11 
REMARK    6  A    between atoms: O4_20  and  C15_21 
ROOT
ATOM      1  C2   11 d         -15.081 206.804 113.770  0.00  0.00     0.039 A 
ATOM      2  C3   11 d         -14.167 205.790 114.126  0.00  0.00     0.020 A 
ATOM      3  C4   11 d         -13.073 206.075 114.956  0.00  0.00     0.032 A 
ATOM      4  C5   11 d         -12.854 207.389 115.420  0.00  0.00     0.056 A 
ATOM      5  C13  11 d         -13.775 208.394 115.086  0.00  0.00     0.032 A 
ATOM      6  C14  11 d         -14.877 208.108 114.266  0.00  0.00     0.020 A 
ENDROOT
BRANCH   4   7
ATOM      7  N1   11 d         -11.762 207.739 116.302  0.00  0.00    -0.260 NA
ATOM      8  C6   11 d         -10.570 208.115 115.877  0.00  0.00     0.128 C 
BRANCH   8   9
ATOM      9  C7   11 d         -10.149 208.433 114.481  0.00  0.00    -0.016 A 
ATOM     10  C8   11 d         -10.786 207.889 113.346  0.00  0.00     0.049 A 
ATOM     11  C9   11 d         -10.359 208.215 112.035  0.00  0.00     0.103 A 
ATOM     12  C10  11 d          -9.295 209.135 111.890  0.00  0.00     0.036 A 
ATOM     13  C11  11 d          -8.680 209.705 113.011  0.00  0.00     0.003 A 
ATOM     14  C12  11 d          -9.106 209.360 114.299  0.00  0.00     0.013 A 
BRANCH  11  15
ATOM     15  N2   11 d         -10.976 207.657 110.912  0.00  0.00    -0.116 N 
ATOM     16  O1   11 d         -11.602 206.702 111.008  0.00  0.00    -0.532 OA
ATOM     17  O2   11 d         -10.689 208.061 109.750  0.00  0.00    -0.532 OA
ENDBRANCH  11  15
ENDBRANCH   8   9
ENDBRANCH   4   7
BRANCH   1  18
ATOM     18  C1   11 d         -16.252 206.509 112.901  0.00  0.00     0.293 C 
ATOM     19  O3   11 d         -17.152 205.718 113.287  0.00  0.00    -0.259 OA
BRANCH  18  20
ATOM     20  O4   11 d         -16.337 207.075 111.596  0.00  0.00    -0.318 OA
BRANCH  20  21
ATOM     21  C15  11 d         -15.447 206.378 110.689  0.00  0.00     0.174 C 
ATOM     22  C16  11 d         -14.872 207.381 109.698  0.00  0.00     0.034 C 
ENDBRANCH  20  21
ENDBRANCH  18  20
ENDBRANCH   1  18
TORSDOF 6
ENDMDL
MODEL 2
REMARK VINA RESULT:      -7.8      2.832      5.910
REMARK  6 active torsions:
REMARK  status: ('A' for Active; 'I' for Inactive)
REMARK    1  A    between atoms: C1_1  and  C2_2 
REMARK    2  A    between atoms: C1_1  and  O4_20 
REMARK    3  A    between atoms: C5_5  and  N1_6 
REMARK    4  A    between atoms: C6_7  and  C7_8 
REMARK    5  A    between atoms: C9_10  and  N2_11 
REMARK    6  A    between atoms: O4_20  and  C15_21 
ROOT
ATOM      1  C2   11 d         -12.400 207.067 116.231  0.00  0.00     0.039 A 
ATOM      2  C3   11 d         -12.043 205.850 115.613  0.00  0.00     0.020 A 
ATOM      3  C4   11 d         -11.592 205.829 114.284  0.00  0.00     0.032 A 
ATOM      4  C5   11 d         -11.520 207.024 113.538  0.00  0.00     0.056 A 
ATOM      5  C13  11 d         -11.853 208.238 114.159  0.00  0.00     0.032 A 
ATOM      6  C14  11 d         -12.292 208.262 115.491  0.00  0.00     0.020 A 
ENDROOT
BRANCH   4   7
ATOM      7  N1   11 d         -11.035 207.072 112.176  0.00  0.00    -0.260 NA
ATOM      8  C6   11 d         -11.803 206.891 111.119  0.00  0.00     0.128 C 
BRANCH   8   9
ATOM      9  C7   11 d         -13.292 206.792 111.069  0.00  0.00    -0.016 A 
ATOM     10  C8   11 d         -14.072 206.415 112.184  0.00  0.00     0.049 A 
ATOM     11  C9   11 d         -15.484 206.333 112.100  0.00  0.00     0.103 A 
ATOM     12  C10  11 d         -16.100 206.677 110.874  0.00  0.00     0.036 A 
ATOM     13  C11  11 d         -15.335 207.084 109.774  0.00  0.00     0.003 A 
ATOM     14  C12  11 d         -13.940 207.145 109.871  0.00  0.00     0.013 A 
BRANCH  11  15
ATOM     15  N2   11 d         -16.253 205.938 113.197  0.00  0.00    -0.116 N 
ATOM     16  O1   11 d         -17.378 205.751 113.080  0.00  0.00    -0.532 OA
ATOM     17  O2   11 d         -15.780 205.984 114.368  0.00  0.00    -0.532 OA
ENDBRANCH  11  15
ENDBRANCH   8   9
ENDBRANCH   4   7
BRANCH   1  18
ATOM     18  C1   11 d         -12.868 207.100 117.642  0.00  0.00     0.293 C 
ATOM     19  O3   11 d         -13.978 206.597 117.959  0.00  0.00    -0.259 OA
BRANCH  18  20
ATOM     20  O4   11 d         -12.090 207.754 118.641  0.00  0.00    -0.318 OA
BRANCH  20  21
ATOM     21  C15  11 d         -10.754 207.194 118.680  0.00  0.00     0.174 C 
ATOM     22  C16  11 d          -9.744 208.320 118.504  0.00  0.00     0.034 C 
ENDBRANCH  20  21
ENDBRANCH  18  20
ENDBRANCH   1  18
TORSDOF 6
ENDMDL
MODEL 3
REMARK VINA RESULT:      -7.8      2.261      5.448
REMARK  6 active torsions:
REMARK  status: ('A' for Active; 'I' for Inactive)
REMARK    1  A    between atoms: C1_1  and  C2_2 
REMARK    2  A    between atoms: C1_1  and  O4_20 
REMARK    3  A    between atoms: C5_5  and  N1_6 
REMARK    4  A    between atoms: C6_7  and  C7_8 
REMARK    5  A    between atoms: C9_10  and  N2_11 
REMARK    6  A    between atoms: O4_20  and  C15_21 
ROOT
ATOM      1  C2   11 d         -11.663 207.802 115.677  0.00  0.00     0.039 A 
ATOM      2  C3   11 d         -12.768 208.611 115.340  0.00  0.00     0.020 A 
ATOM      3  C4   11 d         -14.014 208.033 115.051  0.00  0.00     0.032 A 
ATOM      4  C5   11 d         -14.168 206.631 115.063  0.00  0.00     0.056 A 
ATOM      5  C13  11 d         -13.074 205.826 115.420  0.00  0.00     0.032 A 
ATOM      6  C14  11 d         -11.832 206.403 115.721  0.00  0.00     0.020 A 
ENDROOT
BRANCH   4   7
ATOM      7  N1   11 d         -15.432 205.977 114.803  0.00  0.00    -0.260 NA
ATOM      8  C6   11 d         -16.007 205.941 113.617  0.00  0.00     0.128 C 
BRANCH   8   9
ATOM      9  C7   11 d         -15.438 206.369 112.304  0.00  0.00    -0.016 A 
ATOM     10  C8   11 d         -14.050 206.432 112.055  0.00  0.00     0.049 A 
ATOM     11  C9   11 d         -13.546 206.842 110.797  0.00  0.00     0.103 A 
ATOM     12  C10  11 d         -14.475 207.154 109.776  0.00  0.00     0.036 A 
ATOM     13  C11  11 d         -15.853 207.062 110.006  0.00  0.00     0.003 A 
ATOM     14  C12  11 d         -16.333 206.668 111.261  0.00  0.00     0.013 A 
BRANCH  11  15
ATOM     15  N2   11 d         -12.172 206.926 110.558  0.00  0.00    -0.116 N 
ATOM     16  O1   11 d         -11.422 206.594 111.359  0.00  0.00    -0.532 OA
ATOM     17  O2   11 d         -11.727 207.557 109.558  0.00  0.00    -0.532 OA
ENDBRANCH  11  15
ENDBRANCH   8   9
ENDBRANCH   4   7
BRANCH   1  18
ATOM     18  C1   11 d         -10.341 208.407 115.997  0.00  0.00     0.293 C 
ATOM     19  O3   11 d          -9.675 208.000 116.984  0.00  0.00    -0.259 OA
BRANCH  18  20
ATOM     20  O4   11 d          -9.843 209.493 115.222  0.00  0.00    -0.318 OA
BRANCH  20  21
ATOM     21  C15  11 d          -8.663 209.083 114.487  0.00  0.00     0.174 C 
ATOM     22  C16  11 d          -9.097 208.470 113.163  0.00  0.00     0.034 C 
ENDBRANCH  20  21
ENDBRANCH  18  20
ENDBRANCH   1  18
TORSDOF 6
ENDMDL
MODEL 4
REMARK VINA RESULT:      -7.6      2.820      6.941
REMARK  6 active torsions:
REMARK  status: ('A' for Active; 'I' for Inactive)
REMARK    1  A    between atoms: C1_1  and  C2_2 
REMARK    2  A    between atoms: C1_1  and  O4_20 
REMARK    3  A    between atoms: C5_5  and  N1_6 
REMARK    4  A    between atoms: C6_7  and  C7_8 
REMARK    5  A    between atoms: C9_10  and  N2_11 
REMARK    6  A    between atoms: O4_20  and  C15_21 
ROOT
ATOM      1  C2   11 d          -9.395 208.344 112.353  0.00  0.00     0.039 A 
ATOM      2  C3   11 d         -10.005 207.556 113.351  0.00  0.00     0.020 A 
ATOM      3  C4   11 d         -11.167 206.822 113.070  0.00  0.00     0.032 A 
ATOM      4  C5   11 d         -11.760 206.889 111.793  0.00  0.00     0.056 A 
ATOM      5  C13  11 d         -11.143 207.655 110.792  0.00  0.00     0.032 A 
ATOM      6  C14  11 d          -9.973 208.379 111.067  0.00  0.00     0.020 A 
ENDROOT
BRANCH   4   7
ATOM      7  N1   11 d         -12.940 206.132 111.434  0.00  0.00    -0.260 NA
ATOM      8  C6   11 d         -13.924 205.870 112.272  0.00  0.00     0.128 C 
BRANCH   8   9
ATOM      9  C7   11 d         -14.133 206.417 113.646  0.00  0.00    -0.016 A 
ATOM     10  C8   11 d         -13.935 205.650 114.814  0.00  0.00     0.049 A 
ATOM     11  C9   11 d         -14.142 206.203 116.102  0.00  0.00     0.103 A 
ATOM     12  C10  11 d         -14.519 207.563 116.190  0.00  0.00     0.036 A 
ATOM     13  C11  11 d         -14.685 208.340 115.037  0.00  0.00     0.003 A 
ATOM     14  C12  11 d         -14.490 207.772 113.772  0.00  0.00     0.013 A 
BRANCH  11  15
ATOM     15  N2   11 d         -13.968 205.436 117.256  0.00  0.00    -0.116 N 
ATOM     16  O1   11 d         -13.121 205.675 117.990  0.00  0.00    -0.532 OA
ATOM     17  O2   11 d         -14.594 204.349 117.410  0.00  0.00    -0.532 OA
ENDBRANCH  11  15
ENDBRANCH   8   9
ENDBRANCH   4   7
BRANCH   1  18
ATOM     18  C1   11 d          -8.156 209.117 112.637  0.00  0.00     0.293 C 
ATOM     19  O3   11 d          -7.117 208.932 111.951  0.00  0.00    -0.259 OA
BRANCH  18  20
ATOM     20  O4   11 d          -8.116 210.033 113.728  0.00  0.00    -0.318 OA
BRANCH  20  21
ATOM     21  C15  11 d          -7.270 209.515 114.785  0.00  0.00     0.174 C 
ATOM     22  C16  11 d          -6.223 210.563 115.134  0.00  0.00     0.034 C 
ENDBRANCH  20  21
ENDBRANCH  18  20
ENDBRANCH   1  18
TORSDOF 6
ENDMDL
MODEL 5
REMARK VINA RESULT:      -7.5      3.164      4.887
REMARK  6 active torsions:
REMARK  status: ('A' for Active; 'I' for Inactive)
REMARK    1  A    between atoms: C1_1  and  C2_2 
REMARK    2  A    between atoms: C1_1  and  O4_20 
REMARK    3  A    between atoms: C5_5  and  N1_6 
REMARK    4  A    between atoms: C6_7  and  C7_8 
REMARK    5  A    between atoms: C9_10  and  N2_11 
REMARK    6  A    between atoms: O4_20  and  C15_21 
ROOT
ATOM      1  C2   11 d         -13.781 205.199 117.441  0.00  0.00     0.039 A 
ATOM      2  C3   11 d         -14.131 206.561 117.556  0.00  0.00     0.020 A 
ATOM      3  C4   11 d         -13.300 207.558 117.024  0.00  0.00     0.032 A 
ATOM      4  C5   11 d         -12.086 207.213 116.395  0.00  0.00     0.056 A 
ATOM      5  C13  11 d         -11.748 205.858 116.259  0.00  0.00     0.032 A 
ATOM      6  C14  11 d         -12.584 204.858 116.779  0.00  0.00     0.020 A 
ENDROOT
BRANCH   4   7
ATOM      7  N1   11 d         -11.203 208.193 115.801  0.00  0.00    -0.260 NA
ATOM      8  C6   11 d         -11.055 208.351 114.499  0.00  0.00     0.128 C 
BRANCH   8   9
ATOM      9  C7   11 d         -11.854 207.731 113.400  0.00  0.00    -0.016 A 
ATOM     10  C8   11 d         -13.265 207.721 113.391  0.00  0.00     0.049 A 
ATOM     11  C9   11 d         -13.989 207.124 112.330  0.00  0.00     0.103 A 
ATOM     12  C10  11 d         -13.259 206.568 111.254  0.00  0.00     0.036 A 
ATOM     13  C11  11 d         -11.859 206.604 111.240  0.00  0.00     0.003 A 
ATOM     14  C12  11 d         -11.160 207.186 112.305  0.00  0.00     0.013 A 
BRANCH  11  15
ATOM     15  N2   11 d         -15.386 207.094 112.332  0.00  0.00    -0.116 N 
ATOM     16  O1   11 d         -15.973 207.275 111.365  0.00  0.00    -0.532 OA
ATOM     17  O2   11 d         -16.029 207.080 113.420  0.00  0.00    -0.532 OA
ENDBRANCH  11  15
ENDBRANCH   8   9
ENDBRANCH   4   7
BRANCH   1  18
ATOM     18  C1   11 d         -14.662 204.133 117.991  0.00  0.00     0.293 C 
ATOM     19  O3   11 d         -14.846 204.035 119.233  0.00  0.00    -0.259 OA
BRANCH  18  20
ATOM     20  O4   11 d         -15.260 203.177 117.121  0.00  0.00    -0.318 OA
BRANCH  20  21
ATOM     21  C15  11 d         -16.201 202.354 117.855  0.00  0.00     0.174 C 
ATOM     22  C16  11 d         -17.615 202.818 117.532  0.00  0.00     0.034 C 
ENDBRANCH  20  21
ENDBRANCH  18  20
ENDBRANCH   1  18
TORSDOF 6
ENDMDL
MODEL 6
REMARK VINA RESULT:      -7.5      3.162      5.556
REMARK  6 active torsions:
REMARK  status: ('A' for Active; 'I' for Inactive)
REMARK    1  A    between atoms: C1_1  and  C2_2 
REMARK    2  A    between atoms: C1_1  and  O4_20 
REMARK    3  A    between atoms: C5_5  and  N1_6 
REMARK    4  A    between atoms: C6_7  and  C7_8 
REMARK    5  A    between atoms: C9_10  and  N2_11 
REMARK    6  A    between atoms: O4_20  and  C15_21 
ROOT
ATOM      1  C2   11 d         -13.302 207.158 112.375  0.00  0.00     0.039 A 
ATOM      2  C3   11 d         -12.022 206.565 112.374  0.00  0.00     0.020 A 
ATOM      3  C4   11 d         -11.111 206.832 113.408  0.00  0.00     0.032 A 
ATOM      4  C5   11 d         -11.453 207.723 114.446  0.00  0.00     0.056 A 
ATOM      5  C13  11 d         -12.735 208.296 114.460  0.00  0.00     0.032 A 
ATOM      6  C14  11 d         -13.651 208.021 113.434  0.00  0.00     0.020 A 
ENDROOT
BRANCH   4   7
ATOM      7  N1   11 d         -10.570 208.015 115.554  0.00  0.00    -0.260 NA
ATOM      8  C6   11 d         -10.820 207.662 116.800  0.00  0.00     0.128 C 
BRANCH   8   9
ATOM      9  C7   11 d         -11.906 206.771 117.305  0.00  0.00    -0.016 A 
ATOM     10  C8   11 d         -12.758 207.130 118.372  0.00  0.00     0.049 A 
ATOM     11  C9   11 d         -13.779 206.259 118.823  0.00  0.00     0.103 A 
ATOM     12  C10  11 d         -13.950 205.026 118.150  0.00  0.00     0.036 A 
ATOM     13  C11  11 d         -13.130 204.677 117.070  0.00  0.00     0.003 A 
ATOM     14  C12  11 d         -12.117 205.546 116.646  0.00  0.00     0.013 A 
BRANCH  11  15
ATOM     15  N2   11 d         -14.607 206.605 119.894  0.00  0.00    -0.116 N 
ATOM     16  O1   11 d         -14.667 207.692 120.254  0.00  0.00    -0.532 OA
ATOM     17  O2   11 d         -15.136 205.714 120.616  0.00  0.00    -0.532 OA
ENDBRANCH  11  15
ENDBRANCH   8   9
ENDBRANCH   4   7
BRANCH   1  18
ATOM     18  C1   11 d         -14.279 206.872 111.290  0.00  0.00     0.293 C 
ATOM     19  O3   11 d         -13.981 206.084 110.354  0.00  0.00    -0.259 OA
BRANCH  18  20
ATOM     20  O4   11 d         -15.541 207.533 111.268  0.00  0.00    -0.318 OA
BRANCH  20  21
ATOM     21  C15  11 d         -16.597 206.584 110.979  0.00  0.00     0.174 C 
ATOM     22  C16  11 d         -16.962 205.849 112.261  0.00  0.00     0.034 C 
ENDBRANCH  20  21
ENDBRANCH  18  20
ENDBRANCH   1  18
TORSDOF 6
ENDMDL
MODEL 7
REMARK VINA RESULT:      -7.4      2.068      3.935
REMARK  6 active torsions:
REMARK  status: ('A' for Active; 'I' for Inactive)
REMARK    1  A    between atoms: C1_1  and  C2_2 
REMARK    2  A    between atoms: C1_1  and  O4_20 
REMARK    3  A    between atoms: C5_5  and  N1_6 
REMARK    4  A    between atoms: C6_7  and  C7_8 
REMARK    5  A    between atoms: C9_10  and  N2_11 
REMARK    6  A    between atoms: O4_20  and  C15_21 
ROOT
ATOM      1  C2   11 d         -15.620 206.408 111.559  0.00  0.00     0.039 A 
ATOM      2  C3   11 d         -14.669 205.377 111.412  0.00  0.00     0.020 A 
ATOM      3  C4   11 d         -13.488 205.593 110.686  0.00  0.00     0.032 A 
ATOM      4  C5   11 d         -13.251 206.837 110.066  0.00  0.00     0.056 A 
ATOM      5  C13  11 d         -14.185 207.872 110.230  0.00  0.00     0.032 A 
ATOM      6  C14  11 d         -15.361 207.661 110.966  0.00  0.00     0.020 A 
ENDROOT
BRANCH   4   7
ATOM      7  N1   11 d         -12.040 207.130 109.331  0.00  0.00    -0.260 NA
ATOM      8  C6   11 d         -10.967 207.674 109.874  0.00  0.00     0.128 C 
BRANCH   8   9
ATOM      9  C7   11 d         -10.694 207.922 111.321  0.00  0.00    -0.016 A 
ATOM     10  C8   11 d         -11.293 207.170 112.354  0.00  0.00     0.049 A 
ATOM     11  C9   11 d         -11.008 207.433 113.716  0.00  0.00     0.103 A 
ATOM     12  C10  11 d         -10.073 208.451 114.017  0.00  0.00     0.036 A 
ATOM     13  C11  11 d          -9.450 209.180 112.997  0.00  0.00     0.003 A 
ATOM     14  C12  11 d          -9.755 208.914 111.656  0.00  0.00     0.013 A 
BRANCH  11  15
ATOM     15  N2   11 d         -11.619 206.703 114.739  0.00  0.00    -0.116 N 
ATOM     16  O1   11 d         -11.748 205.568 114.644  0.00  0.00    -0.532 OA
ATOM     17  O2   11 d         -12.225 207.291 115.678  0.00  0.00    -0.532 OA
ENDBRANCH  11  15
ENDBRANCH   8   9
ENDBRANCH   4   7
BRANCH   1  18
ATOM     18  C1   11 d         -16.869 206.193 112.337  0.00  0.00     0.293 C 
ATOM     19  O3   11 d         -17.992 206.446 111.826  0.00  0.00    -0.259 OA
BRANCH  18  20
ATOM     20  O4   11 d         -16.805 205.751 113.690  0.00  0.00    -0.318 OA
BRANCH  20  21
ATOM     21  C15  11 d         -15.660 206.340 114.354  0.00  0.00     0.174 C 
ATOM     22  C16  11 d         -15.093 205.330 115.343  0.00  0.00     0.034 C 
ENDBRANCH  20  21
ENDBRANCH  18  20
ENDBRANCH   1  18
TORSDOF 6
ENDMDL
MODEL 8
REMARK VINA RESULT:      -7.4      3.497      5.819
REMARK  6 active torsions:
REMARK  status: ('A' for Active; 'I' for Inactive)
REMARK    1  A    between atoms: C1_1  and  C2_2 
REMARK    2  A    between atoms: C1_1  and  O4_20 
REMARK    3  A    between atoms: C5_5  and  N1_6 
REMARK    4  A    between atoms: C6_7  and  C7_8 
REMARK    5  A    between atoms: C9_10  and  N2_11 
REMARK    6  A    between atoms: O4_20  and  C15_21 
ROOT
ATOM      1  C2   11 d         -13.715 205.513 117.621  0.00  0.00     0.039 A 
ATOM      2  C3   11 d         -12.699 204.957 116.815  0.00  0.00     0.020 A 
ATOM      3  C4   11 d         -12.070 205.730 115.827  0.00  0.00     0.032 A 
ATOM      4  C5   11 d         -12.468 207.064 115.605  0.00  0.00     0.056 A 
ATOM      5  C13  11 d         -13.463 207.625 116.421  0.00  0.00     0.032 A 
ATOM      6  C14  11 d         -14.085 206.859 117.418  0.00  0.00     0.020 A 
ENDROOT
BRANCH   4   7
ATOM      7  N1   11 d         -11.838 207.919 114.623  0.00  0.00    -0.260 NA
ATOM      8  C6   11 d         -12.062 207.833 113.326  0.00  0.00     0.128 C 
BRANCH   8   9
ATOM      9  C7   11 d         -13.096 207.017 112.623  0.00  0.00    -0.016 A 
ATOM     10  C8   11 d         -14.469 207.078 112.944  0.00  0.00     0.049 A 
ATOM     11  C9   11 d         -15.422 206.289 112.254  0.00  0.00     0.103 A 
ATOM     12  C10  11 d         -14.966 205.461 111.202  0.00  0.00     0.036 A 
ATOM     13  C11  11 d         -13.610 205.419 110.856  0.00  0.00     0.003 A 
ATOM     14  C12  11 d         -12.680 206.196 111.559  0.00  0.00     0.013 A 
BRANCH  11  15
ATOM     15  N2   11 d         -16.778 206.333 112.589  0.00  0.00    -0.116 N 
ATOM     16  O1   11 d         -17.168 205.768 113.506  0.00  0.00    -0.532 OA
ATOM     17  O2   11 d         -17.626 206.811 111.784  0.00  0.00    -0.532 OA
ENDBRANCH  11  15
ENDBRANCH   8   9
ENDBRANCH   4   7
BRANCH   1  18
ATOM     18  C1   11 d         -14.380 204.706 118.680  0.00  0.00     0.293 C 
ATOM     19  O3   11 d         -15.112 203.729 118.372  0.00  0.00    -0.259 OA
BRANCH  18  20
ATOM     20  O4   11 d         -14.242 205.067 120.051  0.00  0.00    -0.318 OA
BRANCH  20  21
ATOM     21  C15  11 d         -15.542 205.343 120.629  0.00  0.00     0.174 C 
ATOM     22  C16  11 d         -15.734 206.851 120.710  0.00  0.00     0.034 C 
ENDBRANCH  20  21
ENDBRANCH  18  20
ENDBRANCH   1  18
TORSDOF 6
ENDMDL
MODEL 9
REMARK VINA RESULT:      -7.4      3.363      7.506
REMARK  6 active torsions:
REMARK  status: ('A' for Active; 'I' for Inactive)
REMARK    1  A    between atoms: C1_1  and  C2_2 
REMARK    2  A    between atoms: C1_1  and  O4_20 
REMARK    3  A    between atoms: C5_5  and  N1_6 
REMARK    4  A    between atoms: C6_7  and  C7_8 
REMARK    5  A    between atoms: C9_10  and  N2_11 
REMARK    6  A    between atoms: O4_20  and  C15_21 
ROOT
ATOM      1  C2   11 d          -7.448 209.556 114.073  0.00  0.00     0.039 A 
ATOM      2  C3   11 d          -8.835 209.789 114.188  0.00  0.00     0.020 A 
ATOM      3  C4   11 d          -9.717 209.351 113.189  0.00  0.00     0.032 A 
ATOM      4  C5   11 d          -9.224 208.700 112.039  0.00  0.00     0.056 A 
ATOM      5  C13  11 d          -7.847 208.448 111.934  0.00  0.00     0.032 A 
ATOM      6  C14  11 d          -6.965 208.873 112.938  0.00  0.00     0.020 A 
ENDROOT
BRANCH   4   7
ATOM      7  N1   11 d         -10.085 208.199 110.990  0.00  0.00    -0.260 NA
ATOM      8  C6   11 d         -11.142 207.441 111.210  0.00  0.00     0.128 C 
BRANCH   8   9
ATOM      9  C7   11 d         -11.773 207.100 112.520  0.00  0.00    -0.016 A 
ATOM     10  C8   11 d         -13.045 207.576 112.904  0.00  0.00     0.049 A 
ATOM     11  C9   11 d         -13.613 207.230 114.155  0.00  0.00     0.103 A 
ATOM     12  C10  11 d         -12.886 206.359 115.000  0.00  0.00     0.036 A 
ATOM     13  C11  11 d         -11.638 205.856 114.611  0.00  0.00     0.003 A 
ATOM     14  C12  11 d         -11.086 206.220 113.377  0.00  0.00     0.013 A 
BRANCH  11  15
ATOM     15  N2   11 d         -14.862 207.720 114.544  0.00  0.00    -0.116 N 
ATOM     16  O1   11 d         -15.820 207.321 114.058  0.00  0.00    -0.532 OA
ATOM     17  O2   11 d         -14.954 208.747 115.274  0.00  0.00    -0.532 OA
ENDBRANCH  11  15
ENDBRANCH   8   9
ENDBRANCH   4   7
BRANCH   1  18
ATOM     18  C1   11 d          -6.506 210.006 115.133  0.00  0.00     0.293 C 
ATOM     19  O3   11 d          -6.211 211.224 115.250  0.00  0.00    -0.259 OA
BRANCH  18  20
ATOM     20  O4   11 d          -5.884 209.054 115.991  0.00  0.00    -0.318 OA
BRANCH  20  21
ATOM     21  C15  11 d          -4.459 209.307 116.069  0.00  0.00     0.174 C 
ATOM     22  C16  11 d          -3.778 208.652 114.875  0.00  0.00     0.034 C 
ENDBRANCH  20  21
ENDBRANCH  18  20
ENDBRANCH   1  18
TORSDOF 6
ENDMDL
MODEL 10
REMARK VINA RESULT:      -7.3      2.911      5.660
REMARK  6 active torsions:
REMARK  status: ('A' for Active; 'I' for Inactive)
REMARK    1  A    between atoms: C1_1  and  C2_2 
REMARK    2  A    between atoms: C1_1  and  O4_20 
REMARK    3  A    between atoms: C5_5  and  N1_6 
REMARK    4  A    between atoms: C6_7  and  C7_8 
REMARK    5  A    between atoms: C9_10  and  N2_11 
REMARK    6  A    between atoms: O4_20  and  C15_21 
ROOT
ATOM      1  C2   11 d         -12.544 207.406 116.098  0.00  0.00     0.039 A 
ATOM      2  C3   11 d         -12.617 206.032 115.786  0.00  0.00     0.020 A 
ATOM      3  C4   11 d         -13.778 205.492 115.213  0.00  0.00     0.032 A 
ATOM      4  C5   11 d         -14.900 206.311 114.970  0.00  0.00     0.056 A 
ATOM      5  C13  11 d         -14.820 207.682 115.259  0.00  0.00     0.032 A 
ATOM      6  C14  11 d         -13.656 208.227 115.821  0.00  0.00     0.020 A 
ENDROOT
BRANCH   4   7
ATOM      7  N1   11 d         -16.113 205.819 114.354  0.00  0.00    -0.260 NA
ATOM      8  C6   11 d         -16.376 205.928 113.066  0.00  0.00     0.128 C 
BRANCH   8   9
ATOM      9  C7   11 d         -15.462 206.383 111.975  0.00  0.00    -0.016 A 
ATOM     10  C8   11 d         -14.060 206.438 112.125  0.00  0.00     0.049 A 
ATOM     11  C9   11 d         -13.224 206.873 111.067  0.00  0.00     0.103 A 
ATOM     12  C10  11 d         -13.830 207.217 109.836  0.00  0.00     0.036 A 
ATOM     13  C11  11 d         -15.218 207.132 109.670  0.00  0.00     0.003 A 
ATOM     14  C12  11 d         -16.030 206.714 110.732  0.00  0.00     0.013 A 
BRANCH  11  15
ATOM     15  N2   11 d         -11.838 206.950 111.224  0.00  0.00    -0.116 N 
ATOM     16  O1   11 d         -11.164 207.186 110.327  0.00  0.00    -0.532 OA
ATOM     17  O2   11 d         -11.286 206.558 112.291  0.00  0.00    -0.532 OA
ENDBRANCH  11  15
ENDBRANCH   8   9
ENDBRANCH   4   7
BRANCH   1  18
ATOM     18  C1   11 d         -11.313 207.991 116.695  0.00  0.00     0.293 C 
ATOM     19  O3   11 d         -10.342 208.319 115.964  0.00  0.00    -0.259 OA
BRANCH  18  20
ATOM     20  O4   11 d         -11.199 208.134 118.108  0.00  0.00    -0.318 OA
BRANCH  20  21
ATOM     21  C15  11 d         -10.197 207.221 118.623  0.00  0.00     0.174 C 
ATOM     22  C16  11 d         -10.898 206.006 119.215  0.00  0.00     0.034 C 
ENDBRANCH  20  21
ENDBRANCH  18  20
ENDBRANCH   1  18
TORSDOF 6
ENDMDL
MODEL 11
REMARK VINA RESULT:      -7.2      2.356      4.178
REMARK  6 active torsions:
REMARK  status: ('A' for Active; 'I' for Inactive)
REMARK    1  A    between atoms: C1_1  and  C2_2 
REMARK    2  A    between atoms: C1_1  and  O4_20 
REMARK    3  A    between atoms: C5_5  and  N1_6 
REMARK    4  A    between atoms: C6_7  and  C7_8 
REMARK    5  A    between atoms: C9_10  and  N2_11 
REMARK    6  A    between atoms: O4_20  and  C15_21 
ROOT
ATOM      1  C2   11 d         -15.865 206.432 111.410  0.00  0.00     0.039 A 
ATOM      2  C3   11 d         -14.970 205.379 111.124  0.00  0.00     0.020 A 
ATOM      3  C4   11 d         -13.777 205.626 110.428  0.00  0.00     0.032 A 
ATOM      4  C5   11 d         -13.471 206.927 109.977  0.00  0.00     0.056 A 
ATOM      5  C13  11 d         -14.349 207.979 110.281  0.00  0.00     0.032 A 
ATOM      6  C14  11 d         -15.537 207.737 110.987  0.00  0.00     0.020 A 
ENDROOT
BRANCH   4   7
ATOM      7  N1   11 d         -12.244 207.250 109.282  0.00  0.00    -0.260 NA
ATOM      8  C6   11 d         -11.132 207.611 109.892  0.00  0.00     0.128 C 
BRANCH   8   9
ATOM      9  C7   11 d         -10.835 207.589 111.355  0.00  0.00    -0.016 A 
ATOM     10  C8   11 d          -9.939 208.491 111.969  0.00  0.00     0.049 A 
ATOM     11  C9   11 d          -9.683 208.442 113.361  0.00  0.00     0.103 A 
ATOM     12  C10  11 d         -10.380 207.483 114.133  0.00  0.00     0.036 A 
ATOM     13  C11  11 d         -11.295 206.607 113.537  0.00  0.00     0.003 A 
ATOM     14  C12  11 d         -11.525 206.662 112.157  0.00  0.00     0.013 A 
BRANCH  11  15
ATOM     15  N2   11 d          -8.779 209.320 113.963  0.00  0.00    -0.116 N 
ATOM     16  O1   11 d          -8.673 210.396 113.583  0.00  0.00    -0.532 OA
ATOM     17  O2   11 d          -7.919 208.897 114.786  0.00  0.00    -0.532 OA
ENDBRANCH  11  15
ENDBRANCH   8   9
ENDBRANCH   4   7
BRANCH   1  18
ATOM     18  C1   11 d         -17.127 206.183 112.157  0.00  0.00     0.293 C 
ATOM     19  O3   11 d         -18.241 206.457 111.639  0.00  0.00    -0.259 OA
BRANCH  18  20
ATOM     20  O4   11 d         -17.084 205.684 113.491  0.00  0.00    -0.318 OA
BRANCH  20  21
ATOM     21  C15  11 d         -16.020 206.331 114.233  0.00  0.00     0.174 C 
ATOM     22  C16  11 d         -15.151 205.261 114.879  0.00  0.00     0.034 C 
ENDBRANCH  20  21
ENDBRANCH  18  20
ENDBRANCH   1  18
TORSDOF 6
ENDMDL
MODEL 12
REMARK VINA RESULT:      -7.1      2.298      2.647
REMARK  6 active torsions:
REMARK  status: ('A' for Active; 'I' for Inactive)
REMARK    1  A    between atoms: C1_1  and  C2_2 
REMARK    2  A    between atoms: C1_1  and  O4_20 
REMARK    3  A    between atoms: C5_5  and  N1_6 
REMARK    4  A    between atoms: C6_7  and  C7_8 
REMARK    5  A    between atoms: C9_10  and  N2_11 
REMARK    6  A    between atoms: O4_20  and  C15_21 
ROOT
ATOM      1  C2   11 d         -15.196 206.768 113.900  0.00  0.00     0.039 A 
ATOM      2  C3   11 d         -14.507 205.726 114.556  0.00  0.00     0.020 A 
ATOM      3  C4   11 d         -13.582 206.011 115.572  0.00  0.00     0.032 A 
ATOM      4  C5   11 d         -13.305 207.347 115.928  0.00  0.00     0.056 A 
ATOM      5  C13  11 d         -14.006 208.383 115.291  0.00  0.00     0.032 A 
ATOM      6  C14  11 d         -14.940 208.100 114.284  0.00  0.00     0.020 A 
ENDROOT
BRANCH   4   7
ATOM      7  N1   11 d         -12.385 207.704 116.986  0.00  0.00    -0.260 NA
ATOM      8  C6   11 d         -11.115 207.996 116.783  0.00  0.00     0.128 C 
BRANCH   8   9
ATOM      9  C7   11 d         -10.414 208.204 115.481  0.00  0.00    -0.016 A 
ATOM     10  C8   11 d          -9.185 208.891 115.374  0.00  0.00     0.049 A 
ATOM     11  C9   11 d          -8.548 209.067 114.121  0.00  0.00     0.103 A 
ATOM     12  C10  11 d          -9.159 208.503 112.977  0.00  0.00     0.036 A 
ATOM     13  C11  11 d         -10.362 207.792 113.080  0.00  0.00     0.003 A 
ATOM     14  C12  11 d         -10.983 207.639 114.326  0.00  0.00     0.013 A 
BRANCH  11  15
ATOM     15  N2   11 d          -7.344 209.767 114.012  0.00  0.00    -0.116 N 
ATOM     16  O1   11 d          -6.617 209.542 113.156  0.00  0.00    -0.532 OA
ATOM     17  O2   11 d          -6.936 210.500 114.957  0.00  0.00    -0.532 OA
ENDBRANCH  11  15
ENDBRANCH   8   9
ENDBRANCH   4   7
BRANCH   1  18
ATOM     18  C1   11 d         -16.187 206.475 112.830  0.00  0.00     0.293 C 
ATOM     19  O3   11 d         -17.146 205.688 113.046  0.00  0.00    -0.259 OA
BRANCH  18  20
ATOM     20  O4   11 d         -16.029 207.038 111.531  0.00  0.00    -0.318 OA
BRANCH  20  21
ATOM     21  C15  11 d         -14.723 206.705 110.998  0.00  0.00     0.174 C 
ATOM     22  C16  11 d         -14.637 205.197 110.811  0.00  0.00     0.034 C 
ENDBRANCH  20  21
ENDBRANCH  18  20
ENDBRANCH   1  18
TORSDOF 6
ENDMDL
MODEL 13
REMARK VINA RESULT:      -7.1      4.829      7.534
REMARK  6 active torsions:
REMARK  status: ('A' for Active; 'I' for Inactive)
REMARK    1  A    between atoms: C1_1  and  C2_2 
REMARK    2  A    between atoms: C1_1  and  O4_20 
REMARK    3  A    between atoms: C5_5  and  N1_6 
REMARK    4  A    between atoms: C6_7  and  C7_8 
REMARK    5  A    between atoms: C9_10  and  N2_11 
REMARK    6  A    between atoms: O4_20  and  C15_21 
ROOT
ATOM      1  C2   11 d         -14.964 206.378 115.075  0.00  0.00     0.039 A 
ATOM      2  C3   11 d         -14.539 207.534 115.763  0.00  0.00     0.020 A 
ATOM      3  C4   11 d         -13.797 207.426 116.949  0.00  0.00     0.032 A 
ATOM      4  C5   11 d         -13.493 206.158 117.487  0.00  0.00     0.056 A 
ATOM      5  C13  11 d         -13.896 205.007 116.792  0.00  0.00     0.032 A 
ATOM      6  C14  11 d         -14.627 205.113 115.599  0.00  0.00     0.020 A 
ENDROOT
BRANCH   4   7
ATOM      7  N1   11 d         -12.707 205.982 118.688  0.00  0.00    -0.260 NA
ATOM      8  C6   11 d         -13.229 205.864 119.894  0.00  0.00     0.128 C 
BRANCH   8   9
ATOM      9  C7   11 d         -14.668 205.703 120.262  0.00  0.00    -0.016 A 
ATOM     10  C8   11 d         -15.317 204.450 120.281  0.00  0.00     0.049 A 
ATOM     11  C9   11 d         -16.683 204.334 120.637  0.00  0.00     0.103 A 
ATOM     12  C10  11 d         -17.375 205.509 121.013  0.00  0.00     0.036 A 
ATOM     13  C11  11 d         -16.729 206.751 121.030  0.00  0.00     0.003 A 
ATOM     14  C12  11 d         -15.381 206.847 120.661  0.00  0.00     0.013 A 
BRANCH  11  15
ATOM     15  N2   11 d         -17.331 203.096 120.632  0.00  0.00    -0.116 N 
ATOM     16  O1   11 d         -18.437 203.019 120.923  0.00  0.00    -0.532 OA
ATOM     17  O2   11 d         -16.674 202.024 120.516  0.00  0.00    -0.532 OA
ENDBRANCH  11  15
ENDBRANCH   8   9
ENDBRANCH   4   7
BRANCH   1  18
ATOM     18  C1   11 d         -15.741 206.482 113.811  0.00  0.00     0.293 C 
ATOM     19  O3   11 d         -16.801 205.820 113.657  0.00  0.00    -0.259 OA
BRANCH  18  20
ATOM     20  O4   11 d         -15.261 207.287 112.738  0.00  0.00    -0.318 OA
BRANCH  20  21
ATOM     21  C15  11 d         -14.818 206.449 111.642  0.00  0.00     0.174 C 
ATOM     22  C16  11 d         -15.555 206.864 110.377  0.00  0.00     0.034 C 
ENDBRANCH  20  21
ENDBRANCH  18  20
ENDBRANCH   1  18
TORSDOF 6
ENDMDL
MODEL 14
REMARK VINA RESULT:      -7.0      4.152      5.852
REMARK  6 active torsions:
REMARK  status: ('A' for Active; 'I' for Inactive)
REMARK    1  A    between atoms: C1_1  and  C2_2 
REMARK    2  A    between atoms: C1_1  and  O4_20 
REMARK    3  A    between atoms: C5_5  and  N1_6 
REMARK    4  A    between atoms: C6_7  and  C7_8 
REMARK    5  A    between atoms: C9_10  and  N2_11 
REMARK    6  A    between atoms: O4_20  and  C15_21 
ROOT
ATOM      1  C2   11 d         -10.025 208.183 112.798  0.00  0.00     0.039 A 
ATOM      2  C3   11 d         -10.116 208.316 114.200  0.00  0.00     0.020 A 
ATOM      3  C4   11 d          -9.197 209.110 114.903  0.00  0.00     0.032 A 
ATOM      4  C5   11 d          -8.149 209.761 114.219  0.00  0.00     0.056 A 
ATOM      5  C13  11 d          -8.071 209.648 112.822  0.00  0.00     0.032 A 
ATOM      6  C14  11 d          -8.996 208.865 112.116  0.00  0.00     0.020 A 
ENDROOT
BRANCH   4   7
ATOM      7  N1   11 d          -7.190 210.616 114.884  0.00  0.00    -0.260 NA
ATOM      8  C6   11 d          -5.929 210.284 115.084  0.00  0.00     0.128 C 
BRANCH   8   9
ATOM      9  C7   11 d          -5.190 209.107 114.540  0.00  0.00    -0.016 A 
ATOM     10  C8   11 d          -4.559 209.115 113.277  0.00  0.00     0.049 A 
ATOM     11  C9   11 d          -3.865 207.979 112.794  0.00  0.00     0.103 A 
ATOM     12  C10  11 d          -3.786 206.840 113.630  0.00  0.00     0.036 A 
ATOM     13  C11  11 d          -4.381 206.836 114.897  0.00  0.00     0.003 A 
ATOM     14  C12  11 d          -5.075 207.964 115.352  0.00  0.00     0.013 A 
BRANCH  11  15
ATOM     15  N2   11 d          -3.261 207.980 111.534  0.00  0.00    -0.116 N 
ATOM     16  O1   11 d          -2.204 208.401 111.397  0.00  0.00    -0.532 OA
ATOM     17  O2   11 d          -3.933 207.721 110.496  0.00  0.00    -0.532 OA
ENDBRANCH  11  15
ENDBRANCH   8   9
ENDBRANCH   4   7
BRANCH   1  18
ATOM     18  C1   11 d         -11.001 207.354 112.042  0.00  0.00     0.293 C 
ATOM     19  O3   11 d         -11.129 207.493 110.797  0.00  0.00    -0.259 OA
BRANCH  18  20
ATOM     20  O4   11 d         -11.843 206.432 112.729  0.00  0.00    -0.318 OA
BRANCH  20  21
ATOM     21  C15  11 d         -13.015 206.135 111.930  0.00  0.00     0.174 C 
ATOM     22  C16  11 d         -14.116 205.620 112.846  0.00  0.00     0.034 C 
ENDBRANCH  20  21
ENDBRANCH  18  20
ENDBRANCH   1  18
TORSDOF 6
ENDMDL
MODEL 15
REMARK VINA RESULT:      -6.9      2.748      4.991
REMARK  6 active torsions:
REMARK  status: ('A' for Active; 'I' for Inactive)
REMARK    1  A    between atoms: C1_1  and  C2_2 
REMARK    2  A    between atoms: C1_1  and  O4_20 
REMARK    3  A    between atoms: C5_5  and  N1_6 
REMARK    4  A    between atoms: C6_7  and  C7_8 
REMARK    5  A    between atoms: C9_10  and  N2_11 
REMARK    6  A    between atoms: O4_20  and  C15_21 
ROOT
ATOM      1  C2   11 d         -13.364 207.089 112.390  0.00  0.00     0.039 A 
ATOM      2  C3   11 d         -12.150 206.369 112.389  0.00  0.00     0.020 A 
ATOM      3  C4   11 d         -11.201 206.570 113.403  0.00  0.00     0.032 A 
ATOM      4  C5   11 d         -11.435 207.520 114.419  0.00  0.00     0.056 A 
ATOM      5  C13  11 d         -12.651 208.220 114.433  0.00  0.00     0.032 A 
ATOM      6  C14  11 d         -13.607 208.011 113.428  0.00  0.00     0.020 A 
ENDROOT
BRANCH   4   7
ATOM      7  N1   11 d         -10.509 207.750 115.507  0.00  0.00    -0.260 NA
ATOM      8  C6   11 d         -10.818 207.581 116.778  0.00  0.00     0.128 C 
BRANCH   8   9
ATOM      9  C7   11 d         -12.053 206.969 117.352  0.00  0.00    -0.016 A 
ATOM     10  C8   11 d         -12.484 205.665 117.025  0.00  0.00     0.049 A 
ATOM     11  C9   11 d         -13.661 205.116 117.591  0.00  0.00     0.103 A 
ATOM     12  C10  11 d         -14.377 205.897 118.528  0.00  0.00     0.036 A 
ATOM     13  C11  11 d         -13.937 207.178 118.882  0.00  0.00     0.003 A 
ATOM     14  C12  11 d         -12.779 207.710 118.302  0.00  0.00     0.013 A 
BRANCH  11  15
ATOM     15  N2   11 d         -14.099 203.834 117.249  0.00  0.00    -0.116 N 
ATOM     16  O1   11 d         -13.348 202.979 117.120  0.00  0.00    -0.532 OA
ATOM     17  O2   11 d         -15.289 203.639 116.871  0.00  0.00    -0.532 OA
ENDBRANCH  11  15
ENDBRANCH   8   9
ENDBRANCH   4   7
BRANCH   1  18
ATOM     18  C1   11 d         -14.382 206.874 111.326  0.00  0.00     0.293 C 
ATOM     19  O3   11 d         -14.118 206.156 110.325  0.00  0.00    -0.259 OA
BRANCH  18  20
ATOM     20  O4   11 d         -15.647 207.525 111.401  0.00  0.00    -0.318 OA
BRANCH  20  21
ATOM     21  C15  11 d         -16.710 206.590 111.092  0.00  0.00     0.174 C 
ATOM     22  C16  11 d         -17.034 205.784 112.342  0.00  0.00     0.034 C 
ENDBRANCH  20  21
ENDBRANCH  18  20
ENDBRANCH   1  18
TORSDOF 6
ENDMDL
MODEL 16
REMARK VINA RESULT:      -6.9      3.267      7.236
REMARK  6 active torsions:
REMARK  status: ('A' for Active; 'I' for Inactive)
REMARK    1  A    between atoms: C1_1  and  C2_2 
REMARK    2  A    between atoms: C1_1  and  O4_20 
REMARK    3  A    between atoms: C5_5  and  N1_6 
REMARK    4  A    between atoms: C6_7  and  C7_8 
REMARK    5  A    between atoms: C9_10  and  N2_11 
REMARK    6  A    between atoms: O4_20  and  C15_21 
ROOT
ATOM      1  C2   11 d          -8.323 209.124 114.242  0.00  0.00     0.039 A 
ATOM      2  C3   11 d          -9.555 208.696 114.780  0.00  0.00     0.020 A 
ATOM      3  C4   11 d         -10.544 208.148 113.949  0.00  0.00     0.032 A 
ATOM      4  C5   11 d         -10.331 208.047 112.559  0.00  0.00     0.056 A 
ATOM      5  C13  11 d          -9.097 208.452 112.026  0.00  0.00     0.032 A 
ATOM      6  C14  11 d          -8.102 208.988 112.857  0.00  0.00     0.020 A 
ENDROOT
BRANCH   4   7
ATOM      7  N1   11 d         -11.299 207.465 111.656  0.00  0.00    -0.260 NA
ATOM      8  C6   11 d         -12.457 206.967 112.046  0.00  0.00     0.128 C 
BRANCH   8   9
ATOM      9  C7   11 d         -13.088 207.053 113.397  0.00  0.00    -0.016 A 
ATOM     10  C8   11 d         -12.952 206.041 114.371  0.00  0.00     0.049 A 
ATOM     11  C9   11 d         -13.563 206.158 115.644  0.00  0.00     0.103 A 
ATOM     12  C10  11 d         -14.288 207.339 115.929  0.00  0.00     0.036 A 
ATOM     13  C11  11 d         -14.399 208.362 114.979  0.00  0.00     0.003 A 
ATOM     14  C12  11 d         -13.799 208.222 113.722  0.00  0.00     0.013 A 
BRANCH  11  15
ATOM     15  N2   11 d         -13.448 205.145 116.599  0.00  0.00    -0.116 N 
ATOM     16  O1   11 d         -14.362 204.810 117.204  0.00  0.00    -0.532 OA
ATOM     17  O2   11 d         -12.312 204.729 116.965  0.00  0.00    -0.532 OA
ENDBRANCH  11  15
ENDBRANCH   8   9
ENDBRANCH   4   7
BRANCH   1  18
ATOM     18  C1   11 d          -7.263 209.695 115.117  0.00  0.00     0.293 C 
ATOM     19  O3   11 d          -6.740 210.806 114.842  0.00  0.00    -0.259 OA
BRANCH  18  20
ATOM     20  O4   11 d          -6.790 208.962 116.243  0.00  0.00    -0.318 OA
BRANCH  20  21
ATOM     21  C15  11 d          -5.375 208.682 116.098  0.00  0.00     0.174 C 
ATOM     22  C16  11 d          -5.196 207.583 115.060  0.00  0.00     0.034 C 
ENDBRANCH  20  21
ENDBRANCH  18  20
ENDBRANCH   1  18
TORSDOF 6
ENDMDL
MODEL 17
REMARK VINA RESULT:      -6.7      2.701      4.602
REMARK  6 active torsions:
REMARK  status: ('A' for Active; 'I' for Inactive)
REMARK    1  A    between atoms: C1_1  and  C2_2 
REMARK    2  A    between atoms: C1_1  and  O4_20 
REMARK    3  A    between atoms: C5_5  and  N1_6 
REMARK    4  A    between atoms: C6_7  and  C7_8 
REMARK    5  A    between atoms: C9_10  and  N2_11 
REMARK    6  A    between atoms: O4_20  and  C15_21 
ROOT
ATOM      1  C2   11 d         -14.287 206.657 113.669  0.00  0.00     0.039 A 
ATOM      2  C3   11 d         -13.003 206.107 113.466  0.00  0.00     0.020 A 
ATOM      3  C4   11 d         -11.857 206.792 113.898  0.00  0.00     0.032 A 
ATOM      4  C5   11 d         -11.973 208.056 114.513  0.00  0.00     0.056 A 
ATOM      5  C13  11 d         -13.250 208.594 114.736  0.00  0.00     0.032 A 
ATOM      6  C14  11 d         -14.398 207.904 114.316  0.00  0.00     0.020 A 
ENDROOT
BRANCH   4   7
ATOM      7  N1   11 d         -10.832 208.797 115.006  0.00  0.00    -0.260 NA
ATOM      8  C6   11 d         -10.373 208.698 116.239  0.00  0.00     0.128 C 
BRANCH   8   9
ATOM      9  C7   11 d         -10.774 207.721 117.295  0.00  0.00    -0.016 A 
ATOM     10  C8   11 d         -12.067 207.163 117.370  0.00  0.00     0.049 A 
ATOM     11  C9   11 d         -12.411 206.237 118.385  0.00  0.00     0.103 A 
ATOM     12  C10  11 d         -11.408 205.854 119.307  0.00  0.00     0.036 A 
ATOM     13  C11  11 d         -10.113 206.379 119.218  0.00  0.00     0.003 A 
ATOM     14  C12  11 d          -9.796 207.304 118.216  0.00  0.00     0.013 A 
BRANCH  11  15
ATOM     15  N2   11 d         -13.699 205.702 118.473  0.00  0.00    -0.116 N 
ATOM     16  O1   11 d         -14.219 205.603 119.490  0.00  0.00    -0.532 OA
ATOM     17  O2   11 d         -14.229 205.128 117.480  0.00  0.00    -0.532 OA
ENDBRANCH  11  15
ENDBRANCH   8   9
ENDBRANCH   4   7
BRANCH   1  18
ATOM     18  C1   11 d         -15.508 205.932 113.226  0.00  0.00     0.293 C 
ATOM     19  O3   11 d         -16.441 205.697 114.038  0.00  0.00    -0.259 OA
BRANCH  18  20
ATOM     20  O4   11 d         -15.609 205.446 111.890  0.00  0.00    -0.318 OA
BRANCH  20  21
ATOM     21  C15  11 d         -16.264 206.429 111.050  0.00  0.00     0.174 C 
ATOM     22  C16  11 d         -15.225 207.065 110.137  0.00  0.00     0.034 C 
ENDBRANCH  20  21
ENDBRANCH  18  20
ENDBRANCH   1  18
TORSDOF 6
ENDMDL
MODEL 18
REMARK VINA RESULT:      -6.7      4.590      6.196
REMARK  6 active torsions:
REMARK  status: ('A' for Active; 'I' for Inactive)
REMARK    1  A    between atoms: C1_1  and  C2_2 
REMARK    2  A    between atoms: C1_1  and  O4_20 
REMARK    3  A    between atoms: C5_5  and  N1_6 
REMARK    4  A    between atoms: C6_7  and  C7_8 
REMARK    5  A    between atoms: C9_10  and  N2_11 
REMARK    6  A    between atoms: O4_20  and  C15_21 
ROOT
ATOM      1  C2   11 d         -10.062 207.968 113.479  0.00  0.00     0.039 A 
ATOM      2  C3   11 d          -9.982 208.396 114.821  0.00  0.00     0.020 A 
ATOM      3  C4   11 d          -8.957 209.260 115.234  0.00  0.00     0.032 A 
ATOM      4  C5   11 d          -7.973 209.688 114.318  0.00  0.00     0.056 A 
ATOM      5  C13  11 d          -8.065 209.281 112.977  0.00  0.00     0.032 A 
ATOM      6  C14  11 d          -9.097 208.427 112.560  0.00  0.00     0.020 A 
ENDROOT
BRANCH   4   7
ATOM      7  N1   11 d          -6.910 210.601 114.676  0.00  0.00    -0.260 NA
ATOM      8  C6   11 d          -5.770 210.220 115.219  0.00  0.00     0.128 C 
BRANCH   8   9
ATOM      9  C7   11 d          -5.258 208.830 115.405  0.00  0.00    -0.016 A 
ATOM     10  C8   11 d          -5.532 208.061 116.557  0.00  0.00     0.049 A 
ATOM     11  C9   11 d          -5.031 206.744 116.699  0.00  0.00     0.103 A 
ATOM     12  C10  11 d          -4.274 206.201 115.634  0.00  0.00     0.036 A 
ATOM     13  C11  11 d          -4.026 206.945 114.474  0.00  0.00     0.003 A 
ATOM     14  C12  11 d          -4.519 208.251 114.358  0.00  0.00     0.013 A 
BRANCH  11  15
ATOM     15  N2   11 d          -5.283 205.992 117.849  0.00  0.00    -0.116 N 
ATOM     16  O1   11 d          -5.097 206.440 118.887  0.00  0.00    -0.532 OA
ATOM     17  O2   11 d          -5.513 204.752 117.772  0.00  0.00    -0.532 OA
ENDBRANCH  11  15
ENDBRANCH   8   9
ENDBRANCH   4   7
BRANCH   1  18
ATOM     18  C1   11 d         -11.153 207.062 113.028  0.00  0.00     0.293 C 
ATOM     19  O3   11 d         -11.283 205.917 113.537  0.00  0.00    -0.259 OA
BRANCH  18  20
ATOM     20  O4   11 d         -12.026 207.457 111.974  0.00  0.00    -0.318 OA
BRANCH  20  21
ATOM     21  C15  11 d         -12.589 206.290 111.327  0.00  0.00     0.174 C 
ATOM     22  C16  11 d         -14.106 206.417 111.317  0.00  0.00     0.034 C 
ENDBRANCH  20  21
ENDBRANCH  18  20
ENDBRANCH   1  18
TORSDOF 6
ENDMDL
MODEL 19
REMARK VINA RESULT:      -6.6      2.620      6.865
REMARK  6 active torsions:
REMARK  status: ('A' for Active; 'I' for Inactive)
REMARK    1  A    between atoms: C1_1  and  C2_2 
REMARK    2  A    between atoms: C1_1  and  O4_20 
REMARK    3  A    between atoms: C5_5  and  N1_6 
REMARK    4  A    between atoms: C6_7  and  C7_8 
REMARK    5  A    between atoms: C9_10  and  N2_11 
REMARK    6  A    between atoms: O4_20  and  C15_21 
ROOT
ATOM      1  C2   11 d          -9.580 208.668 113.424  0.00  0.00     0.039 A 
ATOM      2  C3   11 d         -10.417 207.539 113.552  0.00  0.00     0.020 A 
ATOM      3  C4   11 d         -11.093 207.022 112.437  0.00  0.00     0.032 A 
ATOM      4  C5   11 d         -10.969 207.644 111.177  0.00  0.00     0.056 A 
ATOM      5  C13  11 d         -10.118 208.753 111.044  0.00  0.00     0.032 A 
ATOM      6  C14  11 d          -9.432 209.264 112.155  0.00  0.00     0.020 A 
ENDROOT
BRANCH   4   7
ATOM      7  N1   11 d         -11.615 207.141 109.985  0.00  0.00    -0.260 NA
ATOM      8  C6   11 d         -12.838 206.646 109.969  0.00  0.00     0.128 C 
BRANCH   8   9
ATOM      9  C7   11 d         -13.852 206.663 111.065  0.00  0.00    -0.016 A 
ATOM     10  C8   11 d         -13.576 206.204 112.371  0.00  0.00     0.049 A 
ATOM     11  C9   11 d         -14.563 206.236 113.387  0.00  0.00     0.103 A 
ATOM     12  C10  11 d         -15.830 206.779 113.068  0.00  0.00     0.036 A 
ATOM     13  C11  11 d         -16.101 207.267 111.784  0.00  0.00     0.003 A 
ATOM     14  C12  11 d         -15.117 207.214 110.789  0.00  0.00     0.013 A 
BRANCH  11  15
ATOM     15  N2   11 d         -14.296 205.760 114.673  0.00  0.00    -0.116 N 
ATOM     16  O1   11 d         -13.217 205.684 115.051  0.00  0.00    -0.532 OA
ATOM     17  O2   11 d         -15.203 205.210 115.359  0.00  0.00    -0.532 OA
ENDBRANCH  11  15
ENDBRANCH   8   9
ENDBRANCH   4   7
BRANCH   1  18
ATOM     18  C1   11 d          -8.850 209.216 114.599  0.00  0.00     0.293 C 
ATOM     19  O3   11 d          -9.064 208.762 115.753  0.00  0.00    -0.259 OA
BRANCH  18  20
ATOM     20  O4   11 d          -7.942 210.302 114.436  0.00  0.00    -0.318 OA
BRANCH  20  21
ATOM     21  C15  11 d          -6.577 209.838 114.579  0.00  0.00     0.174 C 
ATOM     22  C16  11 d          -5.898 210.638 115.682  0.00  0.00     0.034 C 
ENDBRANCH  20  21
ENDBRANCH  18  20
ENDBRANCH   1  18
TORSDOF 6
ENDMDL
MODEL 20
REMARK VINA RESULT:      -6.6      3.448      6.995
REMARK  6 active torsions:
REMARK  status: ('A' for Active; 'I' for Inactive)
REMARK    1  A    between atoms: C1_1  and  C2_2 
REMARK    2  A    between atoms: C1_1  and  O4_20 
REMARK    3  A    between atoms: C5_5  and  N1_6 
REMARK    4  A    between atoms: C6_7  and  C7_8 
REMARK    5  A    between atoms: C9_10  and  N2_11 
REMARK    6  A    between atoms: O4_20  and  C15_21 
ROOT
ATOM      1  C2   11 d         -10.392 208.664 114.344  0.00  0.00     0.039 A 
ATOM      2  C3   11 d         -11.469 209.122 115.133  0.00  0.00     0.020 A 
ATOM      3  C4   11 d         -12.781 208.711 114.856  0.00  0.00     0.032 A 
ATOM      4  C5   11 d         -13.045 207.858 113.764  0.00  0.00     0.056 A 
ATOM      5  C13  11 d         -11.973 207.384 112.993  0.00  0.00     0.032 A 
ATOM      6  C14  11 d         -10.658 207.784 113.276  0.00  0.00     0.020 A 
ENDROOT
BRANCH   4   7
ATOM      7  N1   11 d         -14.372 207.375 113.447  0.00  0.00    -0.260 NA
ATOM      8  C6   11 d         -15.035 206.514 114.195  0.00  0.00     0.128 C 
BRANCH   8   9
ATOM      9  C7   11 d         -14.680 206.012 115.555  0.00  0.00    -0.016 A 
ATOM     10  C8   11 d         -14.252 206.862 116.597  0.00  0.00     0.049 A 
ATOM     11  C9   11 d         -13.925 206.350 117.877  0.00  0.00     0.103 A 
ATOM     12  C10  11 d         -14.076 204.960 118.098  0.00  0.00     0.036 A 
ATOM     13  C11  11 d         -14.533 204.116 117.078  0.00  0.00     0.003 A 
ATOM     14  C12  11 d         -14.837 204.639 115.815  0.00  0.00     0.013 A 
BRANCH  11  15
ATOM     15  N2   11 d         -13.478 207.189 118.901  0.00  0.00    -0.116 N 
ATOM     16  O1   11 d         -14.142 207.397 119.812  0.00  0.00    -0.532 OA
ATOM     17  O2   11 d         -12.441 207.894 118.751  0.00  0.00    -0.532 OA
ENDBRANCH  11  15
ENDBRANCH   8   9
ENDBRANCH   4   7
BRANCH   1  18
ATOM     18  C1   11 d          -8.995 209.085 114.637  0.00  0.00     0.293 C 
ATOM     19  O3   11 d          -8.445 208.761 115.722  0.00  0.00    -0.259 OA
BRANCH  18  20
ATOM     20  O4   11 d          -8.286 209.909 113.716  0.00  0.00    -0.318 OA
BRANCH  20  21
ATOM     21  C15  11 d          -6.917 209.452 113.589  0.00  0.00     0.174 C 
ATOM     22  C16  11 d          -6.823 208.508 112.398  0.00  0.00     0.034 C 
ENDBRANCH  20  21
ENDBRANCH  18  20
ENDBRANCH   1  18
TORSDOF 6
ENDMDL
