MODEL 1
REMARK VINA RESULT:     -10.0      0.000      0.000
REMARK  3 active torsions:
REMARK  status: ('A' for Active; 'I' for Inactive)
REMARK    1  A    between atoms: C1_1  and  C23_26 
REMARK    2  A    between atoms: C2_2  and  C3_3 
REMARK    3  A    between atoms: N2_15  and  C16_19 
ROOT
ATOM      1  C1   11 d         -14.260 205.291 119.797  0.00  0.00     0.048 A 
ATOM      2  C2   11 d         -15.160 204.285 119.456  0.00  0.00     0.048 A 
ATOM      3  C5   11 d         -15.087 204.130 118.073  0.00  0.00     0.028 A 
ATOM      4  N1   11 d         -14.245 205.076 117.560  0.00  0.00    -0.318 N 
ATOM      5  C6   11 d         -13.657 205.726 118.613  0.00  0.00     0.028 A 
ATOM      6  C7   11 d         -12.636 206.834 118.546  0.00  0.00     0.070 C 
ATOM      7  C8   11 d         -14.073 205.347 116.127  0.00  0.00     0.040 A 
ATOM      8  C9   11 d         -12.864 205.847 115.575  0.00  0.00     0.044 A 
ATOM      9  C10  11 d         -12.817 206.165 114.210  0.00  0.00     0.005 A 
ATOM     10  C11  11 d         -11.837 206.796 113.470  0.00  0.00     0.003 A 
ATOM     11  C12  11 d         -12.292 206.850 112.159  0.00  0.00     0.046 A 
ATOM     12  N2   11 d         -13.522 206.264 112.068  0.00  0.00    -0.346 N 
ATOM     13  C13  11 d         -13.869 205.903 113.343  0.00  0.00     0.046 A 
ATOM     14  C14  11 d         -15.072 205.400 113.857  0.00  0.00     0.033 A 
ATOM     15  C15  11 d         -15.174 205.166 115.242  0.00  0.00     0.032 A 
ATOM     16  C18  11 d         -11.519 207.487 111.168  0.00  0.00     0.030 A 
ATOM     17  C19  11 d         -10.297 208.079 111.543  0.00  0.00     0.002 A 
ATOM     18  C20  11 d          -9.851 208.024 112.881  0.00  0.00     0.001 A 
ATOM     19  C21  11 d         -10.622 207.368 113.862  0.00  0.00     0.014 A 
ATOM     20  C22  11 d         -15.585 202.906 117.346  0.00  0.00     0.070 C 
ENDROOT
BRANCH   2  21
ATOM     21  C3   11 d         -16.097 203.558 120.366  0.00  0.00     0.158 C 
ATOM     22  O1   11 d         -15.650 202.775 121.238  0.00  0.00    -0.293 OA
ATOM     23  C4   11 d         -17.558 203.910 120.421  0.00  0.00     0.097 C 
ENDBRANCH   2  21
BRANCH   1  24
ATOM     24  C23  11 d         -14.025 205.832 121.161  0.00  0.00     0.158 C 
ATOM     25  O2   11 d         -14.525 206.937 121.490  0.00  0.00    -0.293 OA
ATOM     26  C24  11 d         -13.077 205.164 122.114  0.00  0.00     0.097 C 
ENDBRANCH   1  24
BRANCH  12  27
ATOM     27  C16  11 d         -14.232 206.002 110.797  0.00  0.00     0.125 C 
ATOM     28  C17  11 d         -15.277 207.038 110.373  0.00  0.00     0.027 C 
ENDBRANCH  12  27
TORSDOF 3
ENDMDL
MODEL 2
REMARK VINA RESULT:      -9.1      4.996      8.679
REMARK  3 active torsions:
REMARK  status: ('A' for Active; 'I' for Inactive)
REMARK    1  A    between atoms: C1_1  and  C23_26 
REMARK    2  A    between atoms: C2_2  and  C3_3 
REMARK    3  A    between atoms: N2_15  and  C16_19 
ROOT
ATOM      1  C1   11 d          -5.480 209.072 114.115  0.00  0.00     0.048 A 
ATOM      2  C2   11 d          -5.567 209.025 115.504  0.00  0.00     0.048 A 
ATOM      3  C5   11 d          -6.881 208.677 115.814  0.00  0.00     0.028 A 
ATOM      4  N1   11 d          -7.611 208.610 114.660  0.00  0.00    -0.318 N 
ATOM      5  C6   11 d          -6.744 208.751 113.609  0.00  0.00     0.028 A 
ATOM      6  C7   11 d          -7.079 208.720 112.139  0.00  0.00     0.070 C 
ATOM      7  C8   11 d          -9.071 208.464 114.607  0.00  0.00     0.040 A 
ATOM      8  C9   11 d          -9.745 207.824 113.533  0.00  0.00     0.044 A 
ATOM      9  C10  11 d         -11.147 207.811 113.518  0.00  0.00     0.005 A 
ATOM     10  C11  11 d         -12.030 207.402 112.538  0.00  0.00     0.003 A 
ATOM     11  C12  11 d         -13.310 207.592 113.041  0.00  0.00     0.046 A 
ATOM     12  N2   11 d         -13.242 208.099 114.307  0.00  0.00    -0.346 N 
ATOM     13  C13  11 d         -11.912 208.293 114.571  0.00  0.00     0.046 A 
ATOM     14  C14  11 d         -11.275 208.921 115.650  0.00  0.00     0.033 A 
ATOM     15  C15  11 d          -9.871 209.033 115.638  0.00  0.00     0.032 A 
ATOM     16  C18  11 d         -14.434 207.304 112.242  0.00  0.00     0.030 A 
ATOM     17  C19  11 d         -14.226 206.846 110.926  0.00  0.00     0.002 A 
ATOM     18  C20  11 d         -12.918 206.666 110.424  0.00  0.00     0.001 A 
ATOM     19  C21  11 d         -11.800 206.938 111.238  0.00  0.00     0.014 A 
ATOM     20  C22  11 d          -7.303 208.135 117.156  0.00  0.00     0.070 C 
ENDROOT
BRANCH   2  21
ATOM     21  C3   11 d          -4.499 209.362 116.493  0.00  0.00     0.158 C 
ATOM     22  O1   11 d          -4.674 210.288 117.321  0.00  0.00    -0.293 OA
ATOM     23  C4   11 d          -3.301 208.473 116.677  0.00  0.00     0.097 C 
ENDBRANCH   2  21
BRANCH   1  24
ATOM     24  C23  11 d          -4.278 209.446 113.324  0.00  0.00     0.158 C 
ATOM     25  O2   11 d          -3.888 210.640 113.307  0.00  0.00    -0.293 OA
ATOM     26  C24  11 d          -3.601 208.458 112.419  0.00  0.00     0.097 C 
ENDBRANCH   1  24
BRANCH  12  27
ATOM     27  C16  11 d         -14.407 208.274 115.202  0.00  0.00     0.125 C 
ATOM     28  C17  11 d         -14.459 207.370 116.437  0.00  0.00     0.027 C 
ENDBRANCH  12  27
TORSDOF 3
ENDMDL
MODEL 3
REMARK VINA RESULT:      -8.9      3.981      7.287
REMARK  3 active torsions:
REMARK  status: ('A' for Active; 'I' for Inactive)
REMARK    1  A    between atoms: C1_1  and  C23_26 
REMARK    2  A    between atoms: C2_2  and  C3_3 
REMARK    3  A    between atoms: N2_15  and  C16_19 
ROOT
ATOM      1  C1   11 d         -13.850 206.676 112.146  0.00  0.00     0.048 A 
ATOM      2  C2   11 d         -14.700 206.600 113.246  0.00  0.00     0.048 A 
ATOM      3  C5   11 d         -13.968 207.027 114.352  0.00  0.00     0.028 A 
ATOM      4  N1   11 d         -12.676 207.263 113.971  0.00  0.00    -0.318 N 
ATOM      5  C6   11 d         -12.617 207.149 112.607  0.00  0.00     0.028 A 
ATOM      6  C7   11 d         -11.408 207.345 111.727  0.00  0.00     0.070 C 
ATOM      7  C8   11 d         -11.572 207.536 114.899  0.00  0.00     0.040 A 
ATOM      8  C9   11 d         -10.446 208.327 114.549  0.00  0.00     0.044 A 
ATOM      9  C10  11 d          -9.394 208.460 115.466  0.00  0.00     0.005 A 
ATOM     10  C11  11 d          -8.144 209.032 115.320  0.00  0.00     0.003 A 
ATOM     11  C12  11 d          -7.496 208.904 116.542  0.00  0.00     0.046 A 
ATOM     12  N2   11 d          -8.312 208.276 117.438  0.00  0.00    -0.346 N 
ATOM     13  C13  11 d          -9.453 207.947 116.754  0.00  0.00     0.046 A 
ATOM     14  C14  11 d         -10.556 207.170 117.133  0.00  0.00     0.033 A 
ATOM     15  C15  11 d         -11.580 206.942 116.193  0.00  0.00     0.032 A 
ATOM     16  C18  11 d          -6.171 209.359 116.690  0.00  0.00     0.030 A 
ATOM     17  C19  11 d          -5.522 209.919 115.573  0.00  0.00     0.002 A 
ATOM     18  C20  11 d          -6.190 210.034 114.334  0.00  0.00     0.001 A 
ATOM     19  C21  11 d          -7.523 209.594 114.200  0.00  0.00     0.014 A 
ATOM     20  C22  11 d         -14.600 207.474 115.646  0.00  0.00     0.070 C 
ENDROOT
BRANCH   2  21
ATOM     21  C3   11 d         -16.102 206.083 113.276  0.00  0.00     0.158 C 
ATOM     22  O1   11 d         -16.557 205.552 114.317  0.00  0.00    -0.293 OA
ATOM     23  C4   11 d         -17.067 206.386 112.163  0.00  0.00     0.097 C 
ENDBRANCH   2  21
BRANCH   1  24
ATOM     24  C23  11 d         -14.181 206.278 110.753  0.00  0.00     0.158 C 
ATOM     25  O2   11 d         -14.136 205.068 110.421  0.00  0.00    -0.293 OA
ATOM     26  C24  11 d         -14.423 207.305 109.685  0.00  0.00     0.097 C 
ENDBRANCH   1  24
BRANCH  12  27
ATOM     27  C16  11 d          -8.009 208.117 118.878  0.00  0.00     0.125 C 
ATOM     28  C17  11 d          -8.766 209.037 119.840  0.00  0.00     0.027 C 
ENDBRANCH  12  27
TORSDOF 3
ENDMDL
MODEL 4
REMARK VINA RESULT:      -8.5      4.289      7.296
REMARK  3 active torsions:
REMARK  status: ('A' for Active; 'I' for Inactive)
REMARK    1  A    between atoms: C1_1  and  C23_26 
REMARK    2  A    between atoms: C2_2  and  C3_3 
REMARK    3  A    between atoms: N2_15  and  C16_19 
ROOT
ATOM      1  C1   11 d          -6.887 209.410 115.633  0.00  0.00     0.048 A 
ATOM      2  C2   11 d          -7.235 208.935 116.895  0.00  0.00     0.048 A 
ATOM      3  C5   11 d          -8.477 208.316 116.764  0.00  0.00     0.028 A 
ATOM      4  N1   11 d          -8.933 208.489 115.487  0.00  0.00    -0.318 N 
ATOM      5  C6   11 d          -7.926 209.068 114.761  0.00  0.00     0.028 A 
ATOM      6  C7   11 d          -7.949 209.430 113.297  0.00  0.00     0.070 C 
ATOM      7  C8   11 d         -10.286 208.146 115.033  0.00  0.00     0.040 A 
ATOM      8  C9   11 d         -10.580 207.765 113.697  0.00  0.00     0.044 A 
ATOM      9  C10  11 d         -11.914 207.545 113.328  0.00  0.00     0.005 A 
ATOM     10  C11  11 d         -12.476 207.321 112.086  0.00  0.00     0.003 A 
ATOM     11  C12  11 d         -13.841 207.155 112.283  0.00  0.00     0.046 A 
ATOM     12  N2   11 d         -14.136 207.263 113.611  0.00  0.00    -0.346 N 
ATOM     13  C13  11 d         -12.958 207.568 114.242  0.00  0.00     0.046 A 
ATOM     14  C14  11 d         -12.699 207.931 115.571  0.00  0.00     0.033 A 
ATOM     15  C15  11 d         -11.378 208.252 115.941  0.00  0.00     0.032 A 
ATOM     16  C18  11 d         -14.695 206.955 111.180  0.00  0.00     0.030 A 
ATOM     17  C19  11 d         -14.137 206.950 109.887  0.00  0.00     0.002 A 
ATOM     18  C20  11 d         -12.748 207.129 109.701  0.00  0.00     0.001 A 
ATOM     19  C21  11 d         -11.899 207.309 110.812  0.00  0.00     0.014 A 
ATOM     20  C22  11 d          -9.029 207.339 117.771  0.00  0.00     0.070 C 
ENDROOT
BRANCH   2  21
ATOM     21  C3   11 d          -6.483 209.117 118.172  0.00  0.00     0.158 C 
ATOM     22  O1   11 d          -6.954 209.834 119.087  0.00  0.00    -0.293 OA
ATOM     23  C4   11 d          -5.274 208.279 118.490  0.00  0.00     0.097 C 
ENDBRANCH   2  21
BRANCH   1  24
ATOM     24  C23  11 d          -5.663 210.181 115.293  0.00  0.00     0.158 C 
ATOM     25  O2   11 d          -5.721 211.432 115.191  0.00  0.00    -0.293 OA
ATOM     26  C24  11 d          -4.384 209.490 114.918  0.00  0.00     0.097 C 
ENDBRANCH   1  24
BRANCH  12  27
ATOM     27  C16  11 d         -15.465 206.983 114.199  0.00  0.00     0.125 C 
ATOM     28  C17  11 d         -15.668 205.584 114.789  0.00  0.00     0.027 C 
ENDBRANCH  12  27
TORSDOF 3
ENDMDL
MODEL 5
REMARK VINA RESULT:      -8.4      4.458      7.747
REMARK  3 active torsions:
REMARK  status: ('A' for Active; 'I' for Inactive)
REMARK    1  A    between atoms: C1_1  and  C23_26 
REMARK    2  A    between atoms: C2_2  and  C3_3 
REMARK    3  A    between atoms: N2_15  and  C16_19 
ROOT
ATOM      1  C1   11 d         -13.623 207.304 113.690  0.00  0.00     0.048 A 
ATOM      2  C2   11 d         -13.283 207.125 112.352  0.00  0.00     0.048 A 
ATOM      3  C5   11 d         -11.909 207.335 112.253  0.00  0.00     0.028 A 
ATOM      4  N1   11 d         -11.427 207.731 113.470  0.00  0.00    -0.318 N 
ATOM      5  C6   11 d         -12.446 207.619 114.378  0.00  0.00     0.028 A 
ATOM      6  C7   11 d         -12.389 207.919 115.855  0.00  0.00     0.070 C 
ATOM      7  C8   11 d         -10.066 208.229 113.703  0.00  0.00     0.040 A 
ATOM      8  C9   11 d          -9.389 208.079 114.943  0.00  0.00     0.044 A 
ATOM      9  C10  11 d          -8.128 208.667 115.107  0.00  0.00     0.005 A 
ATOM     10  C11  11 d          -7.341 208.801 116.235  0.00  0.00     0.003 A 
ATOM     11  C12  11 d          -6.179 209.454 115.843  0.00  0.00     0.046 A 
ATOM     12  N2   11 d          -6.224 209.721 114.504  0.00  0.00    -0.346 N 
ATOM     13  C13  11 d          -7.452 209.294 114.070  0.00  0.00     0.046 A 
ATOM     14  C14  11 d          -8.089 209.449 112.831  0.00  0.00     0.033 A 
ATOM     15  C15  11 d          -9.397 208.951 112.674  0.00  0.00     0.032 A 
ATOM     16  C18  11 d          -5.193 209.776 116.796  0.00  0.00     0.030 A 
ATOM     17  C19  11 d          -5.425 209.442 118.144  0.00  0.00     0.002 A 
ATOM     18  C20  11 d          -6.614 208.786 118.530  0.00  0.00     0.001 A 
ATOM     19  C21  11 d          -7.587 208.450 117.566  0.00  0.00     0.014 A 
ATOM     20  C22  11 d         -11.077 206.862 111.088  0.00  0.00     0.070 C 
ENDROOT
BRANCH   2  21
ATOM     21  C3   11 d         -14.206 206.847 111.210  0.00  0.00     0.158 C 
ATOM     22  O1   11 d         -14.536 207.769 110.426  0.00  0.00    -0.293 OA
ATOM     23  C4   11 d         -14.576 205.439 110.834  0.00  0.00     0.097 C 
ENDBRANCH   2  21
BRANCH   1  24
ATOM     24  C23  11 d         -14.991 207.225 114.266  0.00  0.00     0.158 C 
ATOM     25  O2   11 d         -15.572 208.274 114.643  0.00  0.00    -0.293 OA
ATOM     26  C24  11 d         -15.643 205.904 114.550  0.00  0.00     0.097 C 
ENDBRANCH   1  24
BRANCH  12  27
ATOM     27  C16  11 d          -5.092 210.262 113.720  0.00  0.00     0.125 C 
ATOM     28  C17  11 d          -4.010 209.261 113.304  0.00  0.00     0.027 C 
ENDBRANCH  12  27
TORSDOF 3
ENDMDL
MODEL 6
REMARK VINA RESULT:      -8.4      4.546      7.553
REMARK  3 active torsions:
REMARK  status: ('A' for Active; 'I' for Inactive)
REMARK    1  A    between atoms: C1_1  and  C23_26 
REMARK    2  A    between atoms: C2_2  and  C3_3 
REMARK    3  A    between atoms: N2_15  and  C16_19 
ROOT
ATOM      1  C1   11 d         -13.525 206.592 111.937  0.00  0.00     0.048 A 
ATOM      2  C2   11 d         -14.258 207.108 113.003  0.00  0.00     0.048 A 
ATOM      3  C5   11 d         -13.352 207.767 113.833  0.00  0.00     0.028 A 
ATOM      4  N1   11 d         -12.086 207.581 113.353  0.00  0.00    -0.318 N 
ATOM      5  C6   11 d         -12.188 206.949 112.142  0.00  0.00     0.028 A 
ATOM      6  C7   11 d         -11.061 206.555 111.221  0.00  0.00     0.070 C 
ATOM      7  C8   11 d         -10.862 207.959 114.069  0.00  0.00     0.040 A 
ATOM      8  C9   11 d          -9.658 208.319 113.405  0.00  0.00     0.044 A 
ATOM      9  C10  11 d          -8.510 208.577 114.167  0.00  0.00     0.005 A 
ATOM     10  C11  11 d          -7.203 208.792 113.774  0.00  0.00     0.003 A 
ATOM     11  C12  11 d          -6.464 209.010 114.929  0.00  0.00     0.046 A 
ATOM     12  N2   11 d          -7.278 208.943 116.023  0.00  0.00    -0.346 N 
ATOM     13  C13  11 d          -8.523 208.612 115.554  0.00  0.00     0.046 A 
ATOM     14  C14  11 d          -9.698 208.271 116.238  0.00  0.00     0.033 A 
ATOM     15  C15  11 d         -10.837 207.913 115.492  0.00  0.00     0.032 A 
ATOM     16  C18  11 d          -5.072 209.214 114.850  0.00  0.00     0.030 A 
ATOM     17  C19  11 d          -4.455 209.170 113.585  0.00  0.00     0.002 A 
ATOM     18  C20  11 d          -5.218 208.938 112.419  0.00  0.00     0.001 A 
ATOM     19  C21  11 d          -6.613 208.754 112.506  0.00  0.00     0.014 A 
ATOM     20  C22  11 d         -13.761 208.786 114.867  0.00  0.00     0.070 C 
ENDROOT
BRANCH   2  21
ATOM     21  C3   11 d         -15.716 206.929 113.273  0.00  0.00     0.158 C 
ATOM     22  O1   11 d         -16.567 207.425 112.496  0.00  0.00    -0.293 OA
ATOM     23  C4   11 d         -16.202 205.975 114.329  0.00  0.00     0.097 C 
ENDBRANCH   2  21
BRANCH   1  24
ATOM     24  C23  11 d         -14.061 205.771 110.820  0.00  0.00     0.158 C 
ATOM     25  O2   11 d         -14.365 206.319 109.732  0.00  0.00    -0.293 OA
ATOM     26  C24  11 d         -14.392 204.319 111.008  0.00  0.00     0.097 C 
ENDBRANCH   1  24
BRANCH  12  27
ATOM     27  C16  11 d          -6.860 209.283 117.401  0.00  0.00     0.125 C 
ATOM     28  C17  11 d          -6.602 208.105 118.346  0.00  0.00     0.027 C 
ENDBRANCH  12  27
TORSDOF 3
ENDMDL
MODEL 7
REMARK VINA RESULT:      -7.7      3.392      8.547
REMARK  3 active torsions:
REMARK  status: ('A' for Active; 'I' for Inactive)
REMARK    1  A    between atoms: C1_1  and  C23_26 
REMARK    2  A    between atoms: C2_2  and  C3_3 
REMARK    3  A    between atoms: N2_15  and  C16_19 
ROOT
ATOM      1  C1   11 d         -11.054 207.489 112.890  0.00  0.00     0.048 A 
ATOM      2  C2   11 d         -10.149 208.194 113.679  0.00  0.00     0.048 A 
ATOM      3  C5   11 d         -10.432 207.871 115.005  0.00  0.00     0.028 A 
ATOM      4  N1   11 d         -11.540 207.071 115.045  0.00  0.00    -0.318 N 
ATOM      5  C6   11 d         -11.868 206.750 113.754  0.00  0.00     0.028 A 
ATOM      6  C7   11 d         -13.003 205.870 113.294  0.00  0.00     0.070 C 
ATOM      7  C8   11 d         -12.249 206.693 116.273  0.00  0.00     0.040 A 
ATOM      8  C9   11 d         -12.968 205.475 116.408  0.00  0.00     0.044 A 
ATOM      9  C10  11 d         -13.693 205.237 117.583  0.00  0.00     0.005 A 
ATOM     10  C11  11 d         -14.580 204.227 117.900  0.00  0.00     0.003 A 
ATOM     11  C12  11 d         -15.008 204.457 119.201  0.00  0.00     0.046 A 
ATOM     12  N2   11 d         -14.404 205.576 119.698  0.00  0.00    -0.346 N 
ATOM     13  C13  11 d         -13.647 206.088 118.678  0.00  0.00     0.046 A 
ATOM     14  C14  11 d         -12.938 207.294 118.580  0.00  0.00     0.033 A 
ATOM     15  C15  11 d         -12.283 207.599 117.371  0.00  0.00     0.032 A 
ATOM     16  C18  11 d         -15.964 203.608 119.792  0.00  0.00     0.030 A 
ATOM     17  C19  11 d         -16.486 202.546 119.028  0.00  0.00     0.002 A 
ATOM     18  C20  11 d         -16.049 202.329 117.703  0.00  0.00     0.001 A 
ATOM     19  C21  11 d         -15.077 203.172 117.127  0.00  0.00     0.014 A 
ATOM     20  C22  11 d          -9.464 208.091 116.140  0.00  0.00     0.070 C 
ENDROOT
BRANCH   2  21
ATOM     21  C3   11 d          -9.121 209.178 113.223  0.00  0.00     0.158 C 
ATOM     22  O1   11 d          -9.277 210.403 113.445  0.00  0.00    -0.293 OA
ATOM     23  C4   11 d          -7.785 208.724 112.702  0.00  0.00     0.097 C 
ENDBRANCH   2  21
BRANCH   1  24
ATOM     24  C23  11 d         -11.162 207.553 111.409  0.00  0.00     0.158 C 
ATOM     25  O2   11 d         -10.296 208.177 110.746  0.00  0.00    -0.293 OA
ATOM     26  C24  11 d         -12.366 207.018 110.691  0.00  0.00     0.097 C 
ENDBRANCH   1  24
BRANCH  12  27
ATOM     27  C16  11 d         -14.503 206.026 121.105  0.00  0.00     0.125 C 
ATOM     28  C17  11 d         -13.609 205.302 122.117  0.00  0.00     0.027 C 
ENDBRANCH  12  27
TORSDOF 3
ENDMDL
MODEL 8
REMARK VINA RESULT:      -7.5      3.673      5.467
REMARK  3 active torsions:
REMARK  status: ('A' for Active; 'I' for Inactive)
REMARK    1  A    between atoms: C1_1  and  C23_26 
REMARK    2  A    between atoms: C2_2  and  C3_3 
REMARK    3  A    between atoms: N2_15  and  C16_19 
ROOT
ATOM      1  C1   11 d          -8.014 208.110 118.388  0.00  0.00     0.048 A 
ATOM      2  C2   11 d          -8.821 207.527 119.362  0.00  0.00     0.048 A 
ATOM      3  C5   11 d          -9.972 207.079 118.717  0.00  0.00     0.028 A 
ATOM      4  N1   11 d          -9.929 207.461 117.405  0.00  0.00    -0.318 N 
ATOM      5  C6   11 d          -8.693 208.003 117.170  0.00  0.00     0.028 A 
ATOM      6  C7   11 d          -8.167 208.544 115.864  0.00  0.00     0.070 C 
ATOM      7  C8   11 d         -11.050 207.339 116.465  0.00  0.00     0.040 A 
ATOM      8  C9   11 d         -10.872 207.164 115.067  0.00  0.00     0.044 A 
ATOM      9  C10  11 d         -11.997 207.150 114.232  0.00  0.00     0.005 A 
ATOM     10  C11  11 d         -12.091 207.149 112.854  0.00  0.00     0.003 A 
ATOM     11  C12  11 d         -13.444 207.122 112.540  0.00  0.00     0.046 A 
ATOM     12  N2   11 d         -14.187 207.099 113.686  0.00  0.00    -0.346 N 
ATOM     13  C13  11 d         -13.295 207.182 114.723  0.00  0.00     0.046 A 
ATOM     14  C14  11 d         -13.504 207.344 116.099  0.00  0.00     0.033 A 
ATOM     15  C15  11 d         -12.385 207.460 116.946  0.00  0.00     0.032 A 
ATOM     16  C18  11 d         -13.859 207.161 111.195  0.00  0.00     0.030 A 
ATOM     17  C19  11 d         -12.877 207.251 110.189  0.00  0.00     0.002 A 
ATOM     18  C20  11 d         -11.505 207.286 110.522  0.00  0.00     0.001 A 
ATOM     19  C21  11 d         -11.099 207.227 111.871  0.00  0.00     0.014 A 
ATOM     20  C22  11 d         -10.912 206.057 119.305  0.00  0.00     0.070 C 
ENDROOT
BRANCH   2  21
ATOM     21  C3   11 d          -8.564 207.459 120.832  0.00  0.00     0.158 C 
ATOM     22  O1   11 d          -9.050 208.326 121.599  0.00  0.00    -0.293 OA
ATOM     23  C4   11 d          -7.926 206.249 121.456  0.00  0.00     0.097 C 
ENDBRANCH   2  21
BRANCH   1  24
ATOM     24  C23  11 d          -6.701 208.768 118.616  0.00  0.00     0.158 C 
ATOM     25  O2   11 d          -6.659 209.936 119.075  0.00  0.00    -0.293 OA
ATOM     26  C24  11 d          -5.419 208.126 118.170  0.00  0.00     0.097 C 
ENDBRANCH   1  24
BRANCH  12  27
ATOM     27  C16  11 d         -15.653 206.906 113.729  0.00  0.00     0.125 C 
ATOM     28  C17  11 d         -16.224 205.811 112.823  0.00  0.00     0.027 C 
ENDBRANCH  12  27
TORSDOF 3
ENDMDL
MODEL 9
REMARK VINA RESULT:      -7.4      3.071      8.529
REMARK  3 active torsions:
REMARK  status: ('A' for Active; 'I' for Inactive)
REMARK    1  A    between atoms: C1_1  and  C23_26 
REMARK    2  A    between atoms: C2_2  and  C3_3 
REMARK    3  A    between atoms: N2_15  and  C16_19 
ROOT
ATOM      1  C1   11 d         -13.856 206.551 112.939  0.00  0.00     0.048 A 
ATOM      2  C2   11 d         -12.507 206.858 113.099  0.00  0.00     0.048 A 
ATOM      3  C5   11 d         -12.170 206.521 114.409  0.00  0.00     0.028 A 
ATOM      4  N1   11 d         -13.295 206.113 115.071  0.00  0.00    -0.318 N 
ATOM      5  C6   11 d         -14.310 206.032 114.155  0.00  0.00     0.028 A 
ATOM      6  C7   11 d         -15.734 205.602 114.408  0.00  0.00     0.070 C 
ATOM      7  C8   11 d         -13.366 205.868 116.516  0.00  0.00     0.040 A 
ATOM      8  C9   11 d         -14.263 204.933 117.099  0.00  0.00     0.044 A 
ATOM      9  C10  11 d         -14.329 204.829 118.495  0.00  0.00     0.005 A 
ATOM     10  C11  11 d         -15.204 204.127 119.301  0.00  0.00     0.003 A 
ATOM     11  C12  11 d         -14.819 204.361 120.615  0.00  0.00     0.046 A 
ATOM     12  N2   11 d         -13.728 205.181 120.642  0.00  0.00    -0.346 N 
ATOM     13  C13  11 d         -13.470 205.519 119.339  0.00  0.00     0.046 A 
ATOM     14  C14  11 d         -12.567 206.442 118.794  0.00  0.00     0.033 A 
ATOM     15  C15  11 d         -12.552 206.634 117.399  0.00  0.00     0.032 A 
ATOM     16  C18  11 d         -15.560 203.808 121.678  0.00  0.00     0.030 A 
ATOM     17  C19  11 d         -16.701 203.039 121.376  0.00  0.00     0.002 A 
ATOM     18  C20  11 d         -17.086 202.818 120.036  0.00  0.00     0.001 A 
ATOM     19  C21  11 d         -16.327 203.359 118.978  0.00  0.00     0.014 A 
ATOM     20  C22  11 d         -10.751 206.319 114.877  0.00  0.00     0.070 C 
ENDROOT
BRANCH   2  21
ATOM     21  C3   11 d         -11.599 207.505 112.105  0.00  0.00     0.158 C 
ATOM     22  O1   11 d         -10.812 208.413 112.465  0.00  0.00    -0.293 OA
ATOM     23  C4   11 d         -11.434 206.941 110.720  0.00  0.00     0.097 C 
ENDBRANCH   2  21
BRANCH   1  24
ATOM     24  C23  11 d         -14.668 206.782 111.715  0.00  0.00     0.158 C 
ATOM     25  O2   11 d         -15.280 207.869 111.567  0.00  0.00    -0.293 OA
ATOM     26  C24  11 d         -14.901 205.687 110.715  0.00  0.00     0.097 C 
ENDBRANCH   1  24
BRANCH  12  27
ATOM     27  C16  11 d         -12.956 205.508 121.861  0.00  0.00     0.125 C 
ATOM     28  C17  11 d         -11.560 204.888 121.972  0.00  0.00     0.027 C 
ENDBRANCH  12  27
TORSDOF 3
ENDMDL
