MODEL 1
REMARK VINA RESULT:      -8.9      0.000      0.000
REMARK  4 active torsions:
REMARK  status: ('A' for Active; 'I' for Inactive)
REMARK    1  A    between atoms: C1_1  and  S1_9 
REMARK    2  A    between atoms: S1_9  and  N1_12 
REMARK    3  A    between atoms: N1_12  and  C9_13 
REMARK    4  A    between atoms: C9_13  and  C10_14 
ROOT
ATOM      1  N1   11 d         -11.027 206.943 113.868  0.00  0.00    -0.211 NA
ATOM      2  H10  11 d         -10.000 206.818 113.594  0.00  0.00     0.140 HD
ENDROOT
BRANCH   1   3
ATOM      3  S1   11 d         -11.121 208.094 115.201  0.00  0.00     0.242 S 
ATOM      4  O1   11 d         -12.435 208.871 115.096  0.00  0.00    -0.206 OA
ATOM      5  O2   11 d          -9.996 209.122 115.057  0.00  0.00    -0.206 OA
BRANCH   3   6
ATOM      6  C1   11 d         -10.942 207.271 116.805  0.00  0.00     0.080 A 
ATOM      7  C2   11 d         -11.834 206.293 117.325  0.00  0.00    -0.039 A 
ATOM      8  C3   11 d         -11.580 205.739 118.599  0.00  0.00     0.015 A 
ATOM      9  C8   11 d         -13.043 205.811 116.566  0.00  0.00     0.050 C 
ATOM     10  C4   11 d         -10.449 206.117 119.347  0.00  0.00    -0.061 A 
ATOM     11  C5   11 d          -9.596 207.109 118.838  0.00  0.00     0.008 A 
ATOM     12  C7   11 d         -10.255 205.596 120.744  0.00  0.00     0.048 C 
ATOM     13  C6   11 d          -9.833 207.667 117.576  0.00  0.00     0.026 A 
ENDBRANCH   3   6
ENDBRANCH   1   3
BRANCH   1  14
ATOM     14  C9   11 d         -11.856 207.309 112.678  0.00  0.00     0.072 C 
ATOM     15  C20  11 d         -10.991 207.379 111.406  0.00  0.00     0.027 C 
BRANCH  14  16
ATOM     16  C10  11 d         -13.033 206.294 112.545  0.00  0.00     0.012 C 
ATOM     17  C11  11 d         -13.416 205.902 111.079  0.00  0.00    -0.008 C 
ATOM     18  C12  11 d         -14.082 207.090 110.336  0.00  0.00     0.010 C 
ATOM     19  C18  11 d         -14.416 204.718 111.108  0.00  0.00     0.010 C 
ATOM     20  C13  11 d         -15.365 207.521 111.087  0.00  0.00    -0.013 C 
ATOM     21  C14  11 d         -15.010 207.933 112.536  0.00  0.00     0.010 C 
ATOM     22  C19  11 d         -16.357 206.333 111.122  0.00  0.00     0.009 C 
ATOM     23  C15  11 d         -14.345 206.741 113.270  0.00  0.00    -0.008 C 
ATOM     24  C16  11 d         -15.345 205.555 113.301  0.00  0.00     0.010 C 
ATOM     25  C17  11 d         -15.704 205.136 111.856  0.00  0.00    -0.013 C 
ENDBRANCH  14  16
ENDBRANCH   1  14
TORSDOF 4
ENDMDL
MODEL 2
REMARK VINA RESULT:      -8.7      4.015      5.680
REMARK  4 active torsions:
REMARK  status: ('A' for Active; 'I' for Inactive)
REMARK    1  A    between atoms: C1_1  and  S1_9 
REMARK    2  A    between atoms: S1_9  and  N1_12 
REMARK    3  A    between atoms: N1_12  and  C9_13 
REMARK    4  A    between atoms: C9_13  and  C10_14 
ROOT
ATOM      1  N1   11 d          -9.157 207.664 113.271  0.00  0.00    -0.211 NA
ATOM      2  H10  11 d          -8.553 207.350 112.446  0.00  0.00     0.140 HD
ENDROOT
BRANCH   1   3
ATOM      3  S1   11 d          -8.359 209.016 114.076  0.00  0.00     0.242 S 
ATOM      4  O1   11 d          -8.584 208.900 115.585  0.00  0.00    -0.206 OA
ATOM      5  O2   11 d          -9.023 210.323 113.637  0.00  0.00    -0.206 OA
BRANCH   3   6
ATOM      6  C1   11 d          -6.599 209.096 113.653  0.00  0.00     0.080 A 
ATOM      7  C2   11 d          -5.645 209.939 114.286  0.00  0.00    -0.039 A 
ATOM      8  C3   11 d          -4.303 209.909 113.847  0.00  0.00     0.015 A 
ATOM      9  C8   11 d          -6.004 210.864 115.420  0.00  0.00     0.050 C 
ATOM     10  C4   11 d          -3.892 209.042 112.818  0.00  0.00    -0.061 A 
ATOM     11  C5   11 d          -4.850 208.241 112.177  0.00  0.00     0.008 A 
ATOM     12  C7   11 d          -2.484 209.103 112.293  0.00  0.00     0.048 C 
ATOM     13  C6   11 d          -6.184 208.258 112.601  0.00  0.00     0.026 A 
ENDBRANCH   3   6
ENDBRANCH   1   3
BRANCH   1  14
ATOM     14  C9   11 d         -10.558 207.950 112.830  0.00  0.00     0.072 C 
ATOM     15  C20  11 d         -10.659 207.956 111.292  0.00  0.00     0.027 C 
BRANCH  14  16
ATOM     16  C10  11 d         -11.521 206.914 113.487  0.00  0.00     0.012 C 
ATOM     17  C11  11 d         -13.016 207.005 113.029  0.00  0.00    -0.008 C 
ATOM     18  C12  11 d         -13.692 208.291 113.571  0.00  0.00     0.010 C 
ATOM     19  C18  11 d         -13.793 205.776 113.566  0.00  0.00     0.010 C 
ATOM     20  C13  11 d         -13.646 208.292 115.118  0.00  0.00    -0.013 C 
ATOM     21  C14  11 d         -12.176 208.224 115.598  0.00  0.00     0.010 C 
ATOM     22  C19  11 d         -14.415 207.059 115.650  0.00  0.00     0.009 C 
ATOM     23  C15  11 d         -11.508 206.936 115.052  0.00  0.00    -0.008 C 
ATOM     24  C16  11 d         -12.285 205.705 115.590  0.00  0.00     0.010 C 
ATOM     25  C17  11 d         -13.755 205.766 115.113  0.00  0.00    -0.013 C 
ENDBRANCH  14  16
ENDBRANCH   1  14
TORSDOF 4
ENDMDL
MODEL 3
REMARK VINA RESULT:      -8.7      2.277      3.367
REMARK  4 active torsions:
REMARK  status: ('A' for Active; 'I' for Inactive)
REMARK    1  A    between atoms: C1_1  and  S1_9 
REMARK    2  A    between atoms: S1_9  and  N1_12 
REMARK    3  A    between atoms: N1_12  and  C9_13 
REMARK    4  A    between atoms: C9_13  and  C10_14 
ROOT
ATOM      1  N1   11 d         -10.715 206.847 113.365  0.00  0.00    -0.211 NA
ATOM      2  H10  11 d          -9.724 206.828 112.960  0.00  0.00     0.140 HD
ENDROOT
BRANCH   1   3
ATOM      3  S1   11 d         -10.716 207.851 114.815  0.00  0.00     0.242 S 
ATOM      4  O1   11 d         -11.212 207.017 115.997  0.00  0.00    -0.206 OA
ATOM      5  O2   11 d         -11.721 208.991 114.634  0.00  0.00    -0.206 OA
BRANCH   3   6
ATOM      6  C1   11 d          -9.083 208.571 115.126  0.00  0.00     0.080 A 
ATOM      7  C2   11 d          -8.355 209.375 114.206  0.00  0.00    -0.039 A 
ATOM      8  C3   11 d          -7.083 209.863 114.576  0.00  0.00     0.015 A 
ATOM      9  C8   11 d          -8.892 209.739 112.846  0.00  0.00     0.050 C 
ATOM     10  C4   11 d          -6.538 209.591 115.845  0.00  0.00    -0.061 A 
ATOM     11  C5   11 d          -7.250 208.767 116.731  0.00  0.00     0.008 A 
ATOM     12  C7   11 d          -5.139 210.029 116.178  0.00  0.00     0.048 C 
ATOM     13  C6   11 d          -8.513 208.276 116.380  0.00  0.00     0.026 A 
ENDBRANCH   3   6
ENDBRANCH   1   3
BRANCH   1  14
ATOM     14  C9   11 d         -11.708 207.264 112.326  0.00  0.00     0.072 C 
ATOM     15  C20  11 d         -11.037 207.389 110.944  0.00  0.00     0.027 C 
BRANCH  14  16
ATOM     16  C10  11 d         -12.896 206.253 112.323  0.00  0.00     0.012 C 
ATOM     17  C11  11 d         -13.443 205.868 110.907  0.00  0.00    -0.008 C 
ATOM     18  C12  11 d         -14.183 207.062 110.247  0.00  0.00     0.010 C 
ATOM     19  C18  11 d         -14.439 204.688 111.045  0.00  0.00     0.010 C 
ATOM     20  C13  11 d         -15.371 207.496 111.138  0.00  0.00    -0.013 C 
ATOM     21  C14  11 d         -14.855 207.901 112.539  0.00  0.00     0.010 C 
ATOM     22  C19  11 d         -16.358 206.312 111.281  0.00  0.00     0.009 C 
ATOM     23  C15  11 d         -14.117 206.704 113.191  0.00  0.00    -0.008 C 
ATOM     24  C16  11 d         -15.113 205.522 113.330  0.00  0.00     0.010 C 
ATOM     25  C17  11 d         -15.633 205.110 111.933  0.00  0.00    -0.013 C 
ENDBRANCH  14  16
ENDBRANCH   1  14
TORSDOF 4
ENDMDL
MODEL 4
REMARK VINA RESULT:      -8.7      2.102      3.759
REMARK  4 active torsions:
REMARK  status: ('A' for Active; 'I' for Inactive)
REMARK    1  A    between atoms: C1_1  and  S1_9 
REMARK    2  A    between atoms: S1_9  and  N1_12 
REMARK    3  A    between atoms: N1_12  and  C9_13 
REMARK    4  A    between atoms: C9_13  and  C10_14 
ROOT
ATOM      1  N1   11 d         -14.376 207.304 115.808  0.00  0.00    -0.211 NA
ATOM      2  H10  11 d         -15.285 207.485 116.342  0.00  0.00     0.140 HD
ENDROOT
BRANCH   1   3
ATOM      3  S1   11 d         -13.061 207.128 116.971  0.00  0.00     0.242 S 
ATOM      4  O1   11 d         -12.925 205.651 117.348  0.00  0.00    -0.206 OA
ATOM      5  O2   11 d         -13.425 207.873 118.257  0.00  0.00    -0.206 OA
BRANCH   3   6
ATOM      6  C1   11 d         -11.511 207.813 116.331  0.00  0.00     0.080 A 
ATOM      7  C2   11 d         -10.309 207.954 117.079  0.00  0.00    -0.039 A 
ATOM      8  C3   11 d          -9.174 208.517 116.456  0.00  0.00     0.015 A 
ATOM      9  C8   11 d         -10.192 207.515 118.516  0.00  0.00     0.050 C 
ATOM     10  C4   11 d          -9.204 208.914 115.107  0.00  0.00    -0.061 A 
ATOM     11  C5   11 d         -10.406 208.803 114.389  0.00  0.00     0.008 A 
ATOM     12  C7   11 d          -8.019 209.609 114.495  0.00  0.00     0.048 C 
ATOM     13  C6   11 d         -11.540 208.245 114.991  0.00  0.00     0.026 A 
ENDBRANCH   3   6
ENDBRANCH   1   3
BRANCH   1  14
ATOM     14  C9   11 d         -14.527 206.148 114.870  0.00  0.00     0.072 C 
ATOM     15  C20  11 d         -15.315 205.002 115.533  0.00  0.00     0.027 C 
BRANCH  14  16
ATOM     16  C10  11 d         -15.196 206.647 113.551  0.00  0.00     0.012 C 
ATOM     17  C11  11 d         -15.797 205.524 112.640  0.00  0.00    -0.008 C 
ATOM     18  C12  11 d         -14.676 204.667 111.993  0.00  0.00     0.010 C 
ATOM     19  C18  11 d         -16.633 206.174 111.508  0.00  0.00     0.010 C 
ATOM     20  C13  11 d         -13.760 205.569 111.133  0.00  0.00    -0.013 C 
ATOM     21  C14  11 d         -13.137 206.677 112.016  0.00  0.00     0.010 C 
ATOM     22  C19  11 d         -14.601 206.224 110.010  0.00  0.00     0.009 C 
ATOM     23  C15  11 d         -14.263 207.529 112.657  0.00  0.00    -0.008 C 
ATOM     24  C16  11 d         -15.100 208.180 111.526  0.00  0.00     0.010 C 
ATOM     25  C17  11 d         -15.728 207.079 110.639  0.00  0.00    -0.013 C 
ENDBRANCH  14  16
ENDBRANCH   1  14
TORSDOF 4
ENDMDL
MODEL 5
REMARK VINA RESULT:      -8.6      2.696      4.261
REMARK  4 active torsions:
REMARK  status: ('A' for Active; 'I' for Inactive)
REMARK    1  A    between atoms: C1_1  and  S1_9 
REMARK    2  A    between atoms: S1_9  and  N1_12 
REMARK    3  A    between atoms: N1_12  and  C9_13 
REMARK    4  A    between atoms: C9_13  and  C10_14 
ROOT
ATOM      1  N1   11 d         -12.451 208.717 114.254  0.00  0.00    -0.211 NA
ATOM      2  H10  11 d         -12.479 209.755 114.511  0.00  0.00     0.140 HD
ENDROOT
BRANCH   1   3
ATOM      3  S1   11 d         -11.151 207.943 115.162  0.00  0.00     0.242 S 
ATOM      4  O1   11 d         -11.309 206.425 115.060  0.00  0.00    -0.206 OA
ATOM      5  O2   11 d         -11.296 208.297 116.644  0.00  0.00    -0.206 OA
BRANCH   3   6
ATOM      6  C1   11 d          -9.522 208.499 114.597  0.00  0.00     0.080 A 
ATOM      7  C2   11 d          -9.114 208.582 113.237  0.00  0.00    -0.039 A 
ATOM      8  C3   11 d          -7.806 209.023 112.938  0.00  0.00     0.015 A 
ATOM      9  C8   11 d         -10.027 208.226 112.092  0.00  0.00     0.050 C 
ATOM     10  C4   11 d          -6.915 209.406 113.957  0.00  0.00    -0.061 A 
ATOM     11  C5   11 d          -7.318 209.286 115.296  0.00  0.00     0.008 A 
ATOM     12  C7   11 d          -5.494 209.770 113.624  0.00  0.00     0.048 C 
ATOM     13  C6   11 d          -8.611 208.852 115.610  0.00  0.00     0.026 A 
ENDBRANCH   3   6
ENDBRANCH   1   3
BRANCH   1  14
ATOM     14  C9   11 d         -13.794 208.084 114.440  0.00  0.00     0.072 C 
ATOM     15  C20  11 d         -14.687 208.950 115.350  0.00  0.00     0.027 C 
BRANCH  14  16
ATOM     16  C10  11 d         -14.436 207.829 113.041  0.00  0.00     0.012 C 
ATOM     17  C11  11 d         -15.700 206.906 113.043  0.00  0.00    -0.008 C 
ATOM     18  C12  11 d         -15.322 205.437 113.369  0.00  0.00     0.010 C 
ATOM     19  C18  11 d         -16.365 206.943 111.644  0.00  0.00     0.010 C 
ATOM     20  C13  11 d         -14.323 204.909 112.313  0.00  0.00    -0.013 C 
ATOM     21  C14  11 d         -13.053 205.794 112.305  0.00  0.00     0.010 C 
ATOM     22  C19  11 d         -14.987 204.957 110.916  0.00  0.00     0.009 C 
ATOM     23  C15  11 d         -13.439 207.259 111.978  0.00  0.00    -0.008 C 
ATOM     24  C16  11 d         -14.105 207.298 110.577  0.00  0.00     0.010 C 
ATOM     25  C17  11 d         -15.376 206.416 110.578  0.00  0.00    -0.013 C 
ENDBRANCH  14  16
ENDBRANCH   1  14
TORSDOF 4
ENDMDL
MODEL 6
REMARK VINA RESULT:      -8.5      1.731      2.346
REMARK  4 active torsions:
REMARK  status: ('A' for Active; 'I' for Inactive)
REMARK    1  A    between atoms: C1_1  and  S1_9 
REMARK    2  A    between atoms: S1_9  and  N1_12 
REMARK    3  A    between atoms: N1_12  and  C9_13 
REMARK    4  A    between atoms: C9_13  and  C10_14 
ROOT
ATOM      1  N1   11 d         -11.227 206.567 114.110  0.00  0.00    -0.211 NA
ATOM      2  H10  11 d         -10.175 206.681 113.955  0.00  0.00     0.140 HD
ENDROOT
BRANCH   1   3
ATOM      3  S1   11 d         -11.665 207.359 115.624  0.00  0.00     0.242 S 
ATOM      4  O1   11 d         -12.296 208.717 115.310  0.00  0.00    -0.206 OA
ATOM      5  O2   11 d         -10.394 207.646 116.426  0.00  0.00    -0.206 OA
BRANCH   3   6
ATOM      6  C1   11 d         -12.755 206.317 116.629  0.00  0.00     0.080 A 
ATOM      7  C2   11 d         -13.341 206.702 117.866  0.00  0.00    -0.039 A 
ATOM      8  C3   11 d         -14.164 205.783 118.552  0.00  0.00     0.015 A 
ATOM      9  C8   11 d         -13.127 208.064 118.476  0.00  0.00     0.050 C 
ATOM     10  C4   11 d         -14.435 204.509 118.021  0.00  0.00    -0.061 A 
ATOM     11  C5   11 d         -13.822 204.128 116.817  0.00  0.00     0.008 A 
ATOM     12  C7   11 d         -15.225 203.508 118.818  0.00  0.00     0.048 C 
ATOM     13  C6   11 d         -13.005 205.028 116.123  0.00  0.00     0.026 A 
ENDBRANCH   3   6
ENDBRANCH   1   3
BRANCH   1  14
ATOM     14  C9   11 d         -11.998 207.044 112.920  0.00  0.00     0.072 C 
ATOM     15  C20  11 d         -11.115 207.042 111.657  0.00  0.00     0.027 C 
BRANCH  14  16
ATOM     16  C10  11 d         -13.276 206.165 112.755  0.00  0.00     0.012 C 
ATOM     17  C11  11 d         -13.585 205.702 111.291  0.00  0.00    -0.008 C 
ATOM     18  C12  11 d         -14.038 206.895 110.409  0.00  0.00     0.010 C 
ATOM     19  C18  11 d         -14.723 204.649 111.316  0.00  0.00     0.010 C 
ATOM     20  C13  11 d         -15.314 207.532 111.009  0.00  0.00    -0.013 C 
ATOM     21  C14  11 d         -15.029 208.018 112.450  0.00  0.00     0.010 C 
ATOM     22  C19  11 d         -16.444 206.475 111.040  0.00  0.00     0.009 C 
ATOM     23  C15  11 d         -14.578 206.820 113.325  0.00  0.00    -0.008 C 
ATOM     24  C16  11 d         -15.715 205.766 113.351  0.00  0.00     0.010 C 
ATOM     25  C17  11 d         -16.005 205.275 111.913  0.00  0.00    -0.013 C 
ENDBRANCH  14  16
ENDBRANCH   1  14
TORSDOF 4
ENDMDL
MODEL 7
REMARK VINA RESULT:      -8.2      1.511      2.160
REMARK  4 active torsions:
REMARK  status: ('A' for Active; 'I' for Inactive)
REMARK    1  A    between atoms: C1_1  and  S1_9 
REMARK    2  A    between atoms: S1_9  and  N1_12 
REMARK    3  A    between atoms: N1_12  and  C9_13 
REMARK    4  A    between atoms: C9_13  and  C10_14 
ROOT
ATOM      1  N1   11 d         -12.125 205.680 115.228  0.00  0.00    -0.211 NA
ATOM      2  H10  11 d         -11.090 205.408 115.246  0.00  0.00     0.140 HD
ENDROOT
BRANCH   1   3
ATOM      3  S1   11 d         -12.511 206.533 116.723  0.00  0.00     0.242 S 
ATOM      4  O1   11 d         -13.523 205.708 117.520  0.00  0.00    -0.206 OA
ATOM      5  O2   11 d         -13.201 207.856 116.381  0.00  0.00    -0.206 OA
BRANCH   3   6
ATOM      6  C1   11 d         -11.019 206.898 117.685  0.00  0.00     0.080 A 
ATOM      7  C2   11 d          -9.984 207.785 117.282  0.00  0.00    -0.039 A 
ATOM      8  C3   11 d          -8.868 207.968 118.127  0.00  0.00     0.015 A 
ATOM      9  C8   11 d         -10.031 208.553 115.986  0.00  0.00     0.050 C 
ATOM     10  C4   11 d          -8.777 207.311 119.368  0.00  0.00    -0.061 A 
ATOM     11  C5   11 d          -9.788 206.410 119.738  0.00  0.00     0.008 A 
ATOM     12  C7   11 d          -7.532 207.436 120.203  0.00  0.00     0.048 C 
ATOM     13  C6   11 d         -10.902 206.219 118.913  0.00  0.00     0.026 A 
ENDBRANCH   3   6
ENDBRANCH   1   3
BRANCH   1  14
ATOM     14  C9   11 d         -12.457 206.439 113.982  0.00  0.00     0.072 C 
ATOM     15  C20  11 d         -11.261 206.451 113.012  0.00  0.00     0.027 C 
BRANCH  14  16
ATOM     16  C10  11 d         -13.740 205.827 113.340  0.00  0.00     0.012 C 
ATOM     17  C11  11 d         -13.627 205.482 111.817  0.00  0.00    -0.008 C 
ATOM     18  C12  11 d         -13.556 206.769 110.954  0.00  0.00     0.010 C 
ATOM     19  C18  11 d         -14.871 204.666 111.382  0.00  0.00     0.010 C 
ATOM     20  C13  11 d         -14.830 207.619 111.178  0.00  0.00    -0.013 C 
ATOM     21  C14  11 d         -14.954 207.990 112.675  0.00  0.00     0.010 C 
ATOM     22  C19  11 d         -16.070 206.797 110.751  0.00  0.00     0.009 C 
ATOM     23  C15  11 d         -15.025 206.699 113.530  0.00  0.00    -0.008 C 
ATOM     24  C16  11 d         -16.270 205.882 113.096  0.00  0.00     0.010 C 
ATOM     25  C17  11 d         -16.152 205.506 111.600  0.00  0.00    -0.013 C 
ENDBRANCH  14  16
ENDBRANCH   1  14
TORSDOF 4
ENDMDL
MODEL 8
REMARK VINA RESULT:      -7.7      3.107      3.672
REMARK  4 active torsions:
REMARK  status: ('A' for Active; 'I' for Inactive)
REMARK    1  A    between atoms: C1_1  and  S1_9 
REMARK    2  A    between atoms: S1_9  and  N1_12 
REMARK    3  A    between atoms: N1_12  and  C9_13 
REMARK    4  A    between atoms: C9_13  and  C10_14 
ROOT
ATOM      1  N1   11 d         -13.554 205.190 116.132  0.00  0.00    -0.211 NA
ATOM      2  H10  11 d         -12.975 204.290 116.086  0.00  0.00     0.140 HD
ENDROOT
BRANCH   1   3
ATOM      3  S1   11 d         -13.217 206.002 117.661  0.00  0.00     0.242 S 
ATOM      4  O1   11 d         -13.331 207.514 117.456  0.00  0.00    -0.206 OA
ATOM      5  O2   11 d         -11.767 205.727 118.066  0.00  0.00    -0.206 OA
BRANCH   3   6
ATOM      6  C1   11 d         -14.303 205.409 118.983  0.00  0.00     0.080 A 
ATOM      7  C2   11 d         -14.975 204.155 118.988  0.00  0.00    -0.039 A 
ATOM      8  C3   11 d         -15.804 203.824 120.082  0.00  0.00     0.015 A 
ATOM      9  C8   11 d         -14.831 203.153 117.871  0.00  0.00     0.050 C 
ATOM     10  C4   11 d         -15.954 204.697 121.174  0.00  0.00    -0.061 A 
ATOM     11  C5   11 d         -15.314 205.947 121.141  0.00  0.00     0.008 A 
ATOM     12  C7   11 d         -16.924 204.373 122.277  0.00  0.00     0.048 C 
ATOM     13  C6   11 d         -14.488 206.290 120.065  0.00  0.00     0.026 A 
ENDBRANCH   3   6
ENDBRANCH   1   3
BRANCH   1  14
ATOM     14  C9   11 d         -13.322 206.036 114.920  0.00  0.00     0.072 C 
ATOM     15  C20  11 d         -11.854 205.945 114.459  0.00  0.00     0.027 C 
BRANCH  14  16
ATOM     16  C10  11 d         -14.325 205.613 113.803  0.00  0.00     0.012 C 
ATOM     17  C11  11 d         -13.701 205.422 112.380  0.00  0.00    -0.008 C 
ATOM     18  C12  11 d         -13.270 206.781 111.768  0.00  0.00     0.010 C 
ATOM     19  C18  11 d         -14.750 204.771 111.442  0.00  0.00     0.010 C 
ATOM     20  C13  11 d         -14.500 207.713 111.651  0.00  0.00    -0.013 C 
ATOM     21  C14  11 d         -15.125 207.935 113.049  0.00  0.00     0.010 C 
ATOM     22  C19  11 d         -15.549 207.056 110.721  0.00  0.00     0.009 C 
ATOM     23  C15  11 d         -15.552 206.572 113.653  0.00  0.00    -0.008 C 
ATOM     24  C16  11 d         -16.603 205.920 112.715  0.00  0.00     0.010 C 
ATOM     25  C17  11 d         -15.985 205.694 111.315  0.00  0.00    -0.013 C 
ENDBRANCH  14  16
ENDBRANCH   1  14
TORSDOF 4
ENDMDL
MODEL 9
REMARK VINA RESULT:      -7.7      2.070      3.372
REMARK  4 active torsions:
REMARK  status: ('A' for Active; 'I' for Inactive)
REMARK    1  A    between atoms: C1_1  and  S1_9 
REMARK    2  A    between atoms: S1_9  and  N1_12 
REMARK    3  A    between atoms: N1_12  and  C9_13 
REMARK    4  A    between atoms: C9_13  and  C10_14 
ROOT
ATOM      1  N1   11 d         -12.619 208.554 115.101  0.00  0.00    -0.211 NA
ATOM      2  H10  11 d         -12.685 209.487 115.619  0.00  0.00     0.140 HD
ENDROOT
BRANCH   1   3
ATOM      3  S1   11 d         -11.738 207.407 116.112  0.00  0.00     0.242 S 
ATOM      4  O1   11 d         -10.835 208.182 117.073  0.00  0.00    -0.206 OA
ATOM      5  O2   11 d         -10.813 206.567 115.228  0.00  0.00    -0.206 OA
BRANCH   3   6
ATOM      6  C1   11 d         -12.865 206.290 116.987  0.00  0.00     0.080 A 
ATOM      7  C2   11 d         -13.641 206.640 118.126  0.00  0.00    -0.039 A 
ATOM      8  C3   11 d         -14.472 205.664 118.718  0.00  0.00     0.015 A 
ATOM      9  C8   11 d         -13.624 208.022 118.726  0.00  0.00     0.050 C 
ATOM     10  C4   11 d         -14.564 204.364 118.186  0.00  0.00    -0.061 A 
ATOM     11  C5   11 d         -13.765 204.021 117.083  0.00  0.00     0.008 A 
ATOM     12  C7   11 d         -15.370 203.311 118.894  0.00  0.00     0.048 C 
ATOM     13  C6   11 d         -12.938 204.977 116.484  0.00  0.00     0.026 A 
ENDBRANCH   3   6
ENDBRANCH   1   3
BRANCH   1  14
ATOM     14  C9   11 d         -13.973 208.083 114.673  0.00  0.00     0.072 C 
ATOM     15  C20  11 d         -15.070 209.045 115.167  0.00  0.00     0.027 C 
BRANCH  14  16
ATOM     16  C10  11 d         -13.985 207.909 113.123  0.00  0.00     0.012 C 
ATOM     17  C11  11 d         -15.363 207.491 112.507  0.00  0.00    -0.008 C 
ATOM     18  C12  11 d         -15.725 206.029 112.883  0.00  0.00     0.010 C 
ATOM     19  C18  11 d         -15.288 207.597 110.963  0.00  0.00     0.010 C 
ATOM     20  C13  11 d         -14.632 205.070 112.355  0.00  0.00    -0.013 C 
ATOM     21  C14  11 d         -13.261 205.450 112.966  0.00  0.00     0.010 C 
ATOM     22  C19  11 d         -14.554 205.186 110.814  0.00  0.00     0.009 C 
ATOM     23  C15  11 d         -12.907 206.911 112.585  0.00  0.00    -0.008 C 
ATOM     24  C16  11 d         -12.832 207.018 111.040  0.00  0.00     0.010 C 
ATOM     25  C17  11 d         -14.199 206.641 110.422  0.00  0.00    -0.013 C 
ENDBRANCH  14  16
ENDBRANCH   1  14
TORSDOF 4
ENDMDL
MODEL 10
REMARK VINA RESULT:      -7.6      4.824      6.231
REMARK  4 active torsions:
REMARK  status: ('A' for Active; 'I' for Inactive)
REMARK    1  A    between atoms: C1_1  and  S1_9 
REMARK    2  A    between atoms: S1_9  and  N1_12 
REMARK    3  A    between atoms: N1_12  and  C9_13 
REMARK    4  A    between atoms: C9_13  and  C10_14 
ROOT
ATOM      1  N1   11 d         -13.924 205.099 118.688  0.00  0.00    -0.211 NA
ATOM      2  H10  11 d         -13.492 204.123 118.753  0.00  0.00     0.140 HD
ENDROOT
BRANCH   1   3
ATOM      3  S1   11 d         -14.488 205.577 120.290  0.00  0.00     0.242 S 
ATOM      4  O1   11 d         -14.402 207.099 120.415  0.00  0.00    -0.206 OA
ATOM      5  O2   11 d         -13.543 205.000 121.347  0.00  0.00    -0.206 OA
BRANCH   3   6
ATOM      6  C1   11 d         -16.160 204.959 120.618  0.00  0.00     0.080 A 
ATOM      7  C2   11 d         -16.679 203.721 120.152  0.00  0.00    -0.039 A 
ATOM      8  C3   11 d         -18.008 203.368 120.474  0.00  0.00     0.015 A 
ATOM      9  C8   11 d         -15.863 202.756 119.331  0.00  0.00     0.050 C 
ATOM     10  C4   11 d         -18.814 204.205 121.267  0.00  0.00    -0.061 A 
ATOM     11  C5   11 d         -18.301 205.442 121.691  0.00  0.00     0.008 A 
ATOM     12  C7   11 d         -20.258 203.862 121.507  0.00  0.00     0.048 C 
ATOM     13  C6   11 d         -16.985 205.806 121.382  0.00  0.00     0.026 A 
ENDBRANCH   3   6
ENDBRANCH   1   3
BRANCH   1  14
ATOM     14  C9   11 d         -12.971 206.065 118.058  0.00  0.00     0.072 C 
ATOM     15  C20  11 d         -11.570 205.944 118.687  0.00  0.00     0.027 C 
BRANCH  14  16
ATOM     16  C10  11 d         -12.955 205.831 116.516  0.00  0.00     0.012 C 
ATOM     17  C11  11 d         -11.771 206.511 115.748  0.00  0.00    -0.008 C 
ATOM     18  C12  11 d         -11.931 208.054 115.723  0.00  0.00     0.010 C 
ATOM     19  C18  11 d         -11.744 205.996 114.287  0.00  0.00     0.010 C 
ATOM     20  C13  11 d         -13.258 208.429 115.023  0.00  0.00    -0.013 C 
ATOM     21  C14  11 d         -14.448 207.785 115.775  0.00  0.00     0.010 C 
ATOM     22  C19  11 d         -13.231 207.905 113.566  0.00  0.00     0.009 C 
ATOM     23  C15  11 d         -14.281 206.244 115.795  0.00  0.00    -0.008 C 
ATOM     24  C16  11 d         -14.253 205.727 114.332  0.00  0.00     0.010 C 
ATOM     25  C17  11 d         -13.066 206.366 113.574  0.00  0.00    -0.013 C 
ENDBRANCH  14  16
ENDBRANCH   1  14
TORSDOF 4
ENDMDL
