MODEL 1
REMARK VINA RESULT:      -9.3      0.000      0.000
REMARK  7 active torsions:
REMARK  status: ('A' for Active; 'I' for Inactive)
REMARK    1  A    between atoms: C10_13  and  C11_14 
REMARK    2  A    between atoms: C13_16  and  O3_32 
REMARK    3  A    between atoms: C14_17  and  O1_18 
REMARK    4  A    between atoms: O1_18  and  C15_19 
REMARK    5  A    between atoms: C15_19  and  C16_20 
REMARK    6  A    between atoms: C16_20  and  O2_21 
REMARK    7  A    between atoms: O2_21  and  C17_22 
ROOT
ATOM      1  C11  11 d         -13.507 206.537 118.528  0.00  0.00    -0.032 A 
ATOM      2  C12  11 d         -13.891 205.180 118.525  0.00  0.00     0.051 A 
ATOM      3  C13  11 d         -14.905 204.712 119.379  0.00  0.00     0.102 A 
ATOM      4  C14  11 d         -15.491 205.597 120.317  0.00  0.00     0.102 A 
ATOM      5  C25  11 d         -15.050 206.931 120.373  0.00  0.00     0.040 A 
ATOM      6  C26  11 d         -14.082 207.401 119.476  0.00  0.00     0.014 A 
ENDROOT
BRANCH   1   7
ATOM      7  C10  11 d         -12.444 207.077 117.639  0.00  0.00     0.036 C 
ATOM      8  C2   11 d         -12.448 207.160 116.288  0.00  0.00     0.077 A 
ATOM      9  C1   11 d         -13.523 206.842 115.314  0.00  0.00     0.271 A 
ATOM     10  S1   11 d         -10.946 207.747 115.451  0.00  0.00    -0.054 SA
ATOM     11  N1   11 d         -13.134 207.002 113.968  0.00  0.00    -0.262 N 
ATOM     12  O4   11 d         -14.704 206.462 115.636  0.00  0.00    -0.266 OA
ATOM     13  C3   11 d         -11.757 207.471 113.865  0.00  0.00     0.153 A 
ATOM     14  C4   11 d         -14.028 206.721 112.839  0.00  0.00     0.044 A 
ATOM     15  S2   11 d         -11.068 207.734 112.615  0.00  0.00    -0.052 SA
ATOM     16  C5   11 d         -15.226 207.445 112.682  0.00  0.00     0.030 A 
ATOM     17  C9   11 d         -13.695 205.723 111.906  0.00  0.00     0.030 A 
ATOM     18  C6   11 d         -16.077 207.173 111.599  0.00  0.00     0.002 A 
ATOM     19  C7   11 d         -15.736 206.179 110.670  0.00  0.00     0.000 A 
ATOM     20  C8   11 d         -14.545 205.454 110.823  0.00  0.00     0.002 A 
ENDBRANCH   1   7
BRANCH   3  21
ATOM     21  O3   11 d         -15.201 203.319 119.387  0.00  0.00    -0.353 OA
ATOM     22  C27  11 d         -15.475 202.872 118.036  0.00  0.00     0.210 C 
ENDBRANCH   3  21
BRANCH   4  23
ATOM     23  O1   11 d         -16.434 205.129 121.280  0.00  0.00    -0.346 OA
BRANCH  23  24
ATOM     24  C15  11 d         -17.114 206.246 121.915  0.00  0.00     0.202 C 
BRANCH  24  25
ATOM     25  C16  11 d         -17.824 205.767 123.173  0.00  0.00     0.202 C 
BRANCH  25  26
ATOM     26  O2   11 d         -19.262 205.858 122.964  0.00  0.00    -0.348 OA
BRANCH  26  27
ATOM     27  C17  11 d         -19.844 204.559 123.031  0.00  0.00     0.080 A 
ATOM     28  C18  11 d         -20.224 204.015 124.285  0.00  0.00    -0.028 A 
ATOM     29  C19  11 d         -20.813 202.737 124.331  0.00  0.00     0.009 A 
ATOM     30  C24  11 d         -19.887 204.705 125.584  0.00  0.00     0.051 C 
ATOM     31  C20  11 d         -21.124 202.054 123.149  0.00  0.00     0.001 A 
ATOM     32  C21  11 d         -20.833 202.633 121.908  0.00  0.00     0.009 A 
ATOM     33  C22  11 d         -20.175 203.875 121.834  0.00  0.00    -0.028 A 
ATOM     34  C23  11 d         -19.988 204.526 120.489  0.00  0.00     0.051 C 
ENDBRANCH  26  27
ENDBRANCH  25  26
ENDBRANCH  24  25
ENDBRANCH  23  24
ENDBRANCH   4  23
TORSDOF 7
ENDMDL
MODEL 2
REMARK VINA RESULT:      -9.0      1.163      2.056
REMARK  7 active torsions:
REMARK  status: ('A' for Active; 'I' for Inactive)
REMARK    1  A    between atoms: C10_13  and  C11_14 
REMARK    2  A    between atoms: C13_16  and  O3_32 
REMARK    3  A    between atoms: C14_17  and  O1_18 
REMARK    4  A    between atoms: O1_18  and  C15_19 
REMARK    5  A    between atoms: C15_19  and  C16_20 
REMARK    6  A    between atoms: C16_20  and  O2_21 
REMARK    7  A    between atoms: O2_21  and  C17_22 
ROOT
ATOM      1  C11  11 d         -14.108 205.099 118.638  0.00  0.00    -0.032 A 
ATOM      2  C12  11 d         -14.606 203.835 118.261  0.00  0.00     0.051 A 
ATOM      3  C13  11 d         -15.678 203.244 118.952  0.00  0.00     0.102 A 
ATOM      4  C14  11 d         -16.210 203.886 120.097  0.00  0.00     0.102 A 
ATOM      5  C25  11 d         -15.658 205.108 120.519  0.00  0.00     0.040 A 
ATOM      6  C26  11 d         -14.631 205.718 119.787  0.00  0.00     0.014 A 
ENDROOT
BRANCH   1   7
ATOM      7  C10  11 d         -12.980 205.765 117.934  0.00  0.00     0.036 C 
ATOM      8  C2   11 d         -12.892 206.094 116.624  0.00  0.00     0.077 A 
ATOM      9  C1   11 d         -13.903 205.987 115.541  0.00  0.00     0.271 A 
ATOM     10  S1   11 d         -11.329 206.785 116.006  0.00  0.00    -0.054 SA
ATOM     11  N1   11 d         -13.421 206.381 114.275  0.00  0.00    -0.262 N 
ATOM     12  O4   11 d         -15.108 205.585 115.711  0.00  0.00    -0.266 OA
ATOM     13  C3   11 d         -12.035 206.825 114.348  0.00  0.00     0.153 A 
ATOM     14  C4   11 d         -14.242 206.334 113.059  0.00  0.00     0.044 A 
ATOM     15  S2   11 d         -11.259 207.294 113.215  0.00  0.00    -0.052 SA
ATOM     16  C5   11 d         -15.416 207.104 112.962  0.00  0.00     0.030 A 
ATOM     17  C9   11 d         -13.860 205.515 111.981  0.00  0.00     0.030 A 
ATOM     18  C6   11 d         -16.196 207.057 111.795  0.00  0.00     0.002 A 
ATOM     19  C7   11 d         -15.806 206.241 110.722  0.00  0.00     0.000 A 
ATOM     20  C8   11 d         -14.638 205.470 110.815  0.00  0.00     0.002 A 
ENDBRANCH   1   7
BRANCH   3  21
ATOM     21  O3   11 d         -16.092 201.934 118.576  0.00  0.00    -0.353 OA
ATOM     22  C27  11 d         -17.004 202.016 117.452  0.00  0.00     0.210 C 
ENDBRANCH   3  21
BRANCH   4  23
ATOM     23  O1   11 d         -17.214 203.257 120.893  0.00  0.00    -0.346 OA
BRANCH  23  24
ATOM     24  C15  11 d         -18.541 203.608 120.412  0.00  0.00     0.202 C 
BRANCH  24  25
ATOM     25  C16  11 d         -19.595 202.920 121.268  0.00  0.00     0.202 C 
BRANCH  25  26
ATOM     26  O2   11 d         -20.384 203.937 121.948  0.00  0.00    -0.348 OA
BRANCH  26  27
ATOM     27  C17  11 d         -20.133 203.888 123.350  0.00  0.00     0.080 A 
ATOM     28  C18  11 d         -19.332 204.886 123.963  0.00  0.00    -0.028 A 
ATOM     29  C19  11 d         -19.108 204.831 125.352  0.00  0.00     0.009 A 
ATOM     30  C24  11 d         -18.598 205.924 123.151  0.00  0.00     0.051 C 
ATOM     31  C20  11 d         -19.755 203.872 126.140  0.00  0.00     0.001 A 
ATOM     32  C21  11 d         -20.618 202.944 125.546  0.00  0.00     0.009 A 
ATOM     33  C22  11 d         -20.801 202.927 124.151  0.00  0.00    -0.028 A 
ATOM     34  C23  11 d         -21.829 202.000 123.558  0.00  0.00     0.051 C 
ENDBRANCH  26  27
ENDBRANCH  25  26
ENDBRANCH  24  25
ENDBRANCH  23  24
ENDBRANCH   4  23
TORSDOF 7
ENDMDL
MODEL 3
REMARK VINA RESULT:      -8.9      5.177      9.380
REMARK  7 active torsions:
REMARK  status: ('A' for Active; 'I' for Inactive)
REMARK    1  A    between atoms: C10_13  and  C11_14 
REMARK    2  A    between atoms: C13_16  and  O3_32 
REMARK    3  A    between atoms: C14_17  and  O1_18 
REMARK    4  A    between atoms: O1_18  and  C15_19 
REMARK    5  A    between atoms: C15_19  and  C16_20 
REMARK    6  A    between atoms: C16_20  and  O2_21 
REMARK    7  A    between atoms: O2_21  and  C17_22 
ROOT
ATOM      1  C11  11 d         -11.155 206.724 118.369  0.00  0.00    -0.032 A 
ATOM      2  C12  11 d         -11.807 205.561 117.911  0.00  0.00     0.051 A 
ATOM      3  C13  11 d         -12.975 205.644 117.133  0.00  0.00     0.102 A 
ATOM      4  C14  11 d         -13.556 206.910 116.878  0.00  0.00     0.102 A 
ATOM      5  C25  11 d         -12.948 208.064 117.405  0.00  0.00     0.040 A 
ATOM      6  C26  11 d         -11.751 207.975 118.126  0.00  0.00     0.014 A 
ENDROOT
BRANCH   1   7
ATOM      7  C10  11 d          -9.916 206.685 119.190  0.00  0.00     0.036 C 
ATOM      8  C2   11 d          -8.671 207.086 118.839  0.00  0.00     0.077 A 
ATOM      9  C1   11 d          -8.195 207.760 117.604  0.00  0.00     0.271 A 
ATOM     10  S1   11 d          -7.307 206.796 120.004  0.00  0.00    -0.054 SA
ATOM     11  N1   11 d          -6.800 207.972 117.576  0.00  0.00    -0.262 N 
ATOM     12  O4   11 d          -8.956 208.132 116.643  0.00  0.00    -0.266 OA
ATOM     13  C3   11 d          -6.164 207.490 118.796  0.00  0.00     0.153 A 
ATOM     14  C4   11 d          -6.112 208.600 116.443  0.00  0.00     0.044 A 
ATOM     15  S2   11 d          -4.741 207.567 119.068  0.00  0.00    -0.052 SA
ATOM     16  C5   11 d          -6.420 209.920 116.065  0.00  0.00     0.030 A 
ATOM     17  C9   11 d          -5.139 207.883 115.723  0.00  0.00     0.030 A 
ATOM     18  C6   11 d          -5.756 210.517 114.981  0.00  0.00     0.002 A 
ATOM     19  C7   11 d          -4.784 209.797 114.271  0.00  0.00     0.000 A 
ATOM     20  C8   11 d          -4.474 208.481 114.642  0.00  0.00     0.002 A 
ENDBRANCH   1   7
BRANCH   3  21
ATOM     21  O3   11 d         -13.633 204.437 116.760  0.00  0.00    -0.353 OA
ATOM     22  C27  11 d         -14.534 204.026 117.817  0.00  0.00     0.210 C 
ENDBRANCH   3  21
BRANCH   4  23
ATOM     23  O1   11 d         -14.806 207.023 116.198  0.00  0.00    -0.346 OA
BRANCH  23  24
ATOM     24  C15  11 d         -14.692 207.932 115.069  0.00  0.00     0.202 C 
BRANCH  24  25
ATOM     25  C16  11 d         -15.348 207.311 113.843  0.00  0.00     0.202 C 
BRANCH  25  26
ATOM     26  O2   11 d         -14.531 206.196 113.387  0.00  0.00    -0.348 OA
BRANCH  26  27
ATOM     27  C17  11 d         -13.762 206.591 112.253  0.00  0.00     0.080 A 
ATOM     28  C18  11 d         -12.349 206.656 112.342  0.00  0.00    -0.028 A 
ATOM     29  C19  11 d         -11.604 207.032 111.208  0.00  0.00     0.009 A 
ATOM     30  C24  11 d         -11.626 206.472 113.654  0.00  0.00     0.051 C 
ATOM     31  C20  11 d         -12.237 207.231 109.975  0.00  0.00     0.001 A 
ATOM     32  C21  11 d         -13.624 207.075 109.867  0.00  0.00     0.009 A 
ATOM     33  C22  11 d         -14.401 206.776 111.002  0.00  0.00    -0.028 A 
ATOM     34  C23  11 d         -15.871 206.494 110.828  0.00  0.00     0.051 C 
ENDBRANCH  26  27
ENDBRANCH  25  26
ENDBRANCH  24  25
ENDBRANCH  23  24
ENDBRANCH   4  23
TORSDOF 7
ENDMDL
MODEL 4
REMARK VINA RESULT:      -8.8      0.942      1.778
REMARK  7 active torsions:
REMARK  status: ('A' for Active; 'I' for Inactive)
REMARK    1  A    between atoms: C10_13  and  C11_14 
REMARK    2  A    between atoms: C13_16  and  O3_32 
REMARK    3  A    between atoms: C14_17  and  O1_18 
REMARK    4  A    between atoms: O1_18  and  C15_19 
REMARK    5  A    between atoms: C15_19  and  C16_20 
REMARK    6  A    between atoms: C16_20  and  O2_21 
REMARK    7  A    between atoms: O2_21  and  C17_22 
ROOT
ATOM      1  C11  11 d         -13.826 205.770 118.619  0.00  0.00    -0.032 A 
ATOM      2  C12  11 d         -14.261 204.450 118.382  0.00  0.00     0.051 A 
ATOM      3  C13  11 d         -15.303 203.884 119.138  0.00  0.00     0.102 A 
ATOM      4  C14  11 d         -15.868 204.618 120.209  0.00  0.00     0.102 A 
ATOM      5  C25  11 d         -15.378 205.905 120.494  0.00  0.00     0.040 A 
ATOM      6  C26  11 d         -14.381 206.482 119.697  0.00  0.00     0.014 A 
ENDROOT
BRANCH   1   7
ATOM      7  C10  11 d         -12.732 206.411 117.842  0.00  0.00     0.036 C 
ATOM      8  C2   11 d         -12.677 206.636 116.509  0.00  0.00     0.077 A 
ATOM      9  C1   11 d         -13.703 206.413 115.458  0.00  0.00     0.271 A 
ATOM     10  S1   11 d         -11.148 207.323 115.808  0.00  0.00    -0.054 SA
ATOM     11  N1   11 d         -13.255 206.718 114.155  0.00  0.00    -0.262 N 
ATOM     12  O4   11 d         -14.891 205.990 115.683  0.00  0.00    -0.266 OA
ATOM     13  C3   11 d         -11.882 207.209 114.166  0.00  0.00     0.153 A 
ATOM     14  C4   11 d         -14.094 206.549 112.963  0.00  0.00     0.044 A 
ATOM     15  S2   11 d         -11.141 207.609 112.984  0.00  0.00    -0.052 SA
ATOM     16  C5   11 d         -15.293 207.273 112.828  0.00  0.00     0.030 A 
ATOM     17  C9   11 d         -13.704 205.658 111.947  0.00  0.00     0.030 A 
ATOM     18  C6   11 d         -16.091 207.109 111.684  0.00  0.00     0.002 A 
ATOM     19  C7   11 d         -15.693 206.222 110.672  0.00  0.00     0.000 A 
ATOM     20  C8   11 d         -14.500 205.497 110.803  0.00  0.00     0.002 A 
ENDBRANCH   1   7
BRANCH   3  21
ATOM     21  O3   11 d         -15.651 202.522 118.906  0.00  0.00    -0.353 OA
ATOM     22  C27  11 d         -16.274 202.393 117.605  0.00  0.00     0.210 C 
ENDBRANCH   3  21
BRANCH   4  23
ATOM     23  O1   11 d         -16.840 204.030 121.072  0.00  0.00    -0.346 OA
BRANCH  23  24
ATOM     24  C15  11 d         -18.153 204.048 120.449  0.00  0.00     0.202 C 
BRANCH  24  25
ATOM     25  C16  11 d         -19.127 203.225 121.281  0.00  0.00     0.202 C 
BRANCH  25  26
ATOM     26  O2   11 d         -20.132 204.114 121.844  0.00  0.00    -0.348 OA
BRANCH  26  27
ATOM     27  C17  11 d         -20.154 203.984 123.264  0.00  0.00     0.080 A 
ATOM     28  C18  11 d         -20.747 202.843 123.863  0.00  0.00    -0.028 A 
ATOM     29  C19  11 d         -20.745 202.723 125.265  0.00  0.00     0.009 A 
ATOM     30  C24  11 d         -21.504 201.822 123.049  0.00  0.00     0.051 C 
ATOM     31  C20  11 d         -20.071 203.659 126.059  0.00  0.00     0.001 A 
ATOM     32  C21  11 d         -19.407 204.735 125.460  0.00  0.00     0.009 A 
ATOM     33  C22  11 d         -19.457 204.922 124.066  0.00  0.00    -0.028 A 
ATOM     34  C23  11 d         -18.631 206.017 123.443  0.00  0.00     0.051 C 
ENDBRANCH  26  27
ENDBRANCH  25  26
ENDBRANCH  24  25
ENDBRANCH  23  24
ENDBRANCH   4  23
TORSDOF 7
ENDMDL
MODEL 5
REMARK VINA RESULT:      -8.8      7.252     10.672
REMARK  7 active torsions:
REMARK  status: ('A' for Active; 'I' for Inactive)
REMARK    1  A    between atoms: C10_13  and  C11_14 
REMARK    2  A    between atoms: C13_16  and  O3_32 
REMARK    3  A    between atoms: C14_17  and  O1_18 
REMARK    4  A    between atoms: O1_18  and  C15_19 
REMARK    5  A    between atoms: C15_19  and  C16_20 
REMARK    6  A    between atoms: C16_20  and  O2_21 
REMARK    7  A    between atoms: O2_21  and  C17_22 
ROOT
ATOM      1  C11  11 d          -7.313 209.129 115.029  0.00  0.00    -0.032 A 
ATOM      2  C12  11 d          -8.643 209.172 115.495  0.00  0.00     0.051 A 
ATOM      3  C13  11 d          -9.712 208.772 114.674  0.00  0.00     0.102 A 
ATOM      4  C14  11 d          -9.460 208.401 113.331  0.00  0.00     0.102 A 
ATOM      5  C25  11 d          -8.141 208.435 112.844  0.00  0.00     0.040 A 
ATOM      6  C26  11 d          -7.077 208.777 113.688  0.00  0.00     0.014 A 
ENDROOT
BRANCH   1   7
ATOM      7  C10  11 d          -6.152 209.537 115.862  0.00  0.00     0.036 C 
ATOM      8  C2   11 d          -5.782 209.054 117.072  0.00  0.00     0.077 A 
ATOM      9  C1   11 d          -6.345 207.933 117.867  0.00  0.00     0.271 A 
ATOM     10  S1   11 d          -4.384 209.838 117.928  0.00  0.00    -0.054 SA
ATOM     11  N1   11 d          -5.723 207.760 119.121  0.00  0.00    -0.262 N 
ATOM     12  O4   11 d          -7.299 207.173 117.474  0.00  0.00    -0.266 OA
ATOM     13  C3   11 d          -4.649 208.725 119.321  0.00  0.00     0.153 A 
ATOM     14  C4   11 d          -6.135 206.728 120.080  0.00  0.00     0.044 A 
ATOM     15  S2   11 d          -3.820 208.802 120.509  0.00  0.00    -0.052 SA
ATOM     16  C5   11 d          -6.050 205.365 119.739  0.00  0.00     0.030 A 
ATOM     17  C9   11 d          -6.619 207.096 121.348  0.00  0.00     0.030 A 
ATOM     18  C6   11 d          -6.443 204.381 120.661  0.00  0.00     0.002 A 
ATOM     19  C7   11 d          -6.922 204.756 121.926  0.00  0.00     0.000 A 
ATOM     20  C8   11 d          -7.009 206.113 122.270  0.00  0.00     0.002 A 
ENDBRANCH   1   7
BRANCH   3  21
ATOM     21  O3   11 d         -11.041 208.907 115.171  0.00  0.00    -0.353 OA
ATOM     22  C27  11 d         -11.196 208.105 116.368  0.00  0.00     0.210 C 
ENDBRANCH   3  21
BRANCH   4  23
ATOM     23  O1   11 d         -10.532 208.107 112.435  0.00  0.00    -0.346 OA
BRANCH  23  24
ATOM     24  C15  11 d         -10.998 206.743 112.626  0.00  0.00     0.202 C 
BRANCH  24  25
ATOM     25  C16  11 d         -12.222 206.494 111.758  0.00  0.00     0.202 C 
BRANCH  25  26
ATOM     26  O2   11 d         -13.216 207.520 112.040  0.00  0.00    -0.348 OA
BRANCH  26  27
ATOM     27  C17  11 d         -14.511 206.931 112.120  0.00  0.00     0.080 A 
ATOM     28  C18  11 d         -15.031 206.526 113.376  0.00  0.00    -0.028 A 
ATOM     29  C19  11 d         -16.319 205.961 113.439  0.00  0.00     0.009 A 
ATOM     30  C24  11 d         -14.190 206.553 114.629  0.00  0.00     0.051 C 
ATOM     31  C20  11 d         -17.125 205.900 112.296  0.00  0.00     0.001 A 
ATOM     32  C21  11 d         -16.646 206.384 111.074  0.00  0.00     0.009 A 
ATOM     33  C22  11 d         -15.334 206.883 110.966  0.00  0.00    -0.028 A 
ATOM     34  C23  11 d         -14.893 207.510 109.669  0.00  0.00     0.051 C 
ENDBRANCH  26  27
ENDBRANCH  25  26
ENDBRANCH  24  25
ENDBRANCH  23  24
ENDBRANCH   4  23
TORSDOF 7
ENDMDL
MODEL 6
REMARK VINA RESULT:      -8.7      6.677     10.381
REMARK  7 active torsions:
REMARK  status: ('A' for Active; 'I' for Inactive)
REMARK    1  A    between atoms: C10_13  and  C11_14 
REMARK    2  A    between atoms: C13_16  and  O3_32 
REMARK    3  A    between atoms: C14_17  and  O1_18 
REMARK    4  A    between atoms: O1_18  and  C15_19 
REMARK    5  A    between atoms: C15_19  and  C16_20 
REMARK    6  A    between atoms: C16_20  and  O2_21 
REMARK    7  A    between atoms: O2_21  and  C17_22 
ROOT
ATOM      1  C11  11 d         -10.165 208.082 118.255  0.00  0.00    -0.032 A 
ATOM      2  C12  11 d         -10.256 208.570 116.936  0.00  0.00     0.051 A 
ATOM      3  C13  11 d         -11.031 207.905 115.969  0.00  0.00     0.102 A 
ATOM      4  C14  11 d         -11.661 206.680 116.300  0.00  0.00     0.102 A 
ATOM      5  C25  11 d         -11.502 206.153 117.594  0.00  0.00     0.040 A 
ATOM      6  C26  11 d         -10.778 206.855 118.567  0.00  0.00     0.014 A 
ENDROOT
BRANCH   1   7
ATOM      7  C10  11 d          -9.362 208.753 119.311  0.00  0.00     0.036 C 
ATOM      8  C2   11 d          -8.014 208.834 119.408  0.00  0.00     0.077 A 
ATOM      9  C1   11 d          -6.958 208.381 118.468  0.00  0.00     0.271 A 
ATOM     10  S1   11 d          -7.297 209.609 120.888  0.00  0.00    -0.054 SA
ATOM     11  N1   11 d          -5.647 208.589 118.945  0.00  0.00    -0.262 N 
ATOM     12  O4   11 d          -7.185 207.853 117.323  0.00  0.00    -0.266 OA
ATOM     13  C3   11 d          -5.653 209.231 120.255  0.00  0.00     0.153 A 
ATOM     14  C4   11 d          -4.451 208.195 118.191  0.00  0.00     0.044 A 
ATOM     15  S2   11 d          -4.462 209.579 121.007  0.00  0.00    -0.052 SA
ATOM     16  C5   11 d          -4.187 208.759 116.929  0.00  0.00     0.030 A 
ATOM     17  C9   11 d          -3.560 207.247 118.727  0.00  0.00     0.030 A 
ATOM     18  C6   11 d          -3.040 208.380 116.213  0.00  0.00     0.002 A 
ATOM     19  C7   11 d          -2.154 207.437 116.755  0.00  0.00     0.000 A 
ATOM     20  C8   11 d          -2.413 206.871 118.012  0.00  0.00     0.002 A 
ENDBRANCH   1   7
BRANCH   3  21
ATOM     21  O3   11 d         -11.029 208.401 114.634  0.00  0.00    -0.353 OA
ATOM     22  C27  11 d          -9.689 208.820 114.273  0.00  0.00     0.210 C 
ENDBRANCH   3  21
BRANCH   4  23
ATOM     23  O1   11 d         -12.353 205.918 115.312  0.00  0.00    -0.346 OA
BRANCH  23  24
ATOM     24  C15  11 d         -13.780 205.899 115.588  0.00  0.00     0.202 C 
BRANCH  24  25
ATOM     25  C16  11 d         -14.546 206.361 114.357  0.00  0.00     0.202 C 
BRANCH  25  26
ATOM     26  O2   11 d         -14.366 205.381 113.296  0.00  0.00    -0.348 OA
BRANCH  26  27
ATOM     27  C17  11 d         -14.505 206.010 112.025  0.00  0.00     0.080 A 
ATOM     28  C18  11 d         -15.796 206.295 111.511  0.00  0.00    -0.028 A 
ATOM     29  C19  11 d         -15.914 206.932 110.261  0.00  0.00     0.009 A 
ATOM     30  C24  11 d         -17.049 205.809 112.198  0.00  0.00     0.051 C 
ATOM     31  C20  11 d         -14.776 207.382 109.582  0.00  0.00     0.001 A 
ATOM     32  C21  11 d         -13.506 207.183 110.134  0.00  0.00     0.009 A 
ATOM     33  C22  11 d         -13.354 206.481 111.345  0.00  0.00    -0.028 A 
ATOM     34  C23  11 d         -11.988 206.392 111.973  0.00  0.00     0.051 C 
ENDBRANCH  26  27
ENDBRANCH  25  26
ENDBRANCH  24  25
ENDBRANCH  23  24
ENDBRANCH   4  23
TORSDOF 7
ENDMDL
MODEL 7
REMARK VINA RESULT:      -8.5      5.231      9.618
REMARK  7 active torsions:
REMARK  status: ('A' for Active; 'I' for Inactive)
REMARK    1  A    between atoms: C10_13  and  C11_14 
REMARK    2  A    between atoms: C13_16  and  O3_32 
REMARK    3  A    between atoms: C14_17  and  O1_18 
REMARK    4  A    between atoms: O1_18  and  C15_19 
REMARK    5  A    between atoms: C15_19  and  C16_20 
REMARK    6  A    between atoms: C16_20  and  O2_21 
REMARK    7  A    between atoms: O2_21  and  C17_22 
ROOT
ATOM      1  C11  11 d          -9.958 207.833 118.285  0.00  0.00    -0.032 A 
ATOM      2  C12  11 d         -10.725 206.719 118.685  0.00  0.00     0.051 A 
ATOM      3  C13  11 d         -11.816 206.277 117.916  0.00  0.00     0.102 A 
ATOM      4  C14  11 d         -12.205 207.010 116.768  0.00  0.00     0.102 A 
ATOM      5  C25  11 d         -11.487 208.167 116.416  0.00  0.00     0.040 A 
ATOM      6  C26  11 d         -10.365 208.564 117.155  0.00  0.00     0.014 A 
ENDROOT
BRANCH   1   7
ATOM      7  C10  11 d          -8.794 208.333 119.063  0.00  0.00     0.036 C 
ATOM      8  C2   11 d          -7.547 208.608 118.614  0.00  0.00     0.077 A 
ATOM      9  C1   11 d          -7.003 208.592 117.232  0.00  0.00     0.271 A 
ATOM     10  S1   11 d          -6.276 209.083 119.822  0.00  0.00    -0.054 SA
ATOM     11  N1   11 d          -5.625 208.885 117.163  0.00  0.00    -0.262 N 
ATOM     12  O4   11 d          -7.696 208.347 116.183  0.00  0.00    -0.266 OA
ATOM     13  C3   11 d          -5.071 209.158 118.484  0.00  0.00     0.153 A 
ATOM     14  C4   11 d          -4.875 208.901 115.902  0.00  0.00     0.044 A 
ATOM     15  S2   11 d          -3.684 209.493 118.743  0.00  0.00    -0.052 SA
ATOM     16  C5   11 d          -5.219 209.806 114.880  0.00  0.00     0.030 A 
ATOM     17  C9   11 d          -3.806 208.008 115.705  0.00  0.00     0.030 A 
ATOM     18  C6   11 d          -4.497 209.819 113.676  0.00  0.00     0.002 A 
ATOM     19  C7   11 d          -3.429 208.929 113.488  0.00  0.00     0.000 A 
ATOM     20  C8   11 d          -3.083 208.024 114.503  0.00  0.00     0.002 A 
ENDBRANCH   1   7
BRANCH   3  21
ATOM     21  O3   11 d         -12.600 205.193 118.406  0.00  0.00    -0.353 OA
ATOM     22  C27  11 d         -13.501 205.670 119.436  0.00  0.00     0.210 C 
ENDBRANCH   3  21
BRANCH   4  23
ATOM     23  O1   11 d         -13.379 206.661 116.035  0.00  0.00    -0.346 OA
BRANCH  23  24
ATOM     24  C15  11 d         -14.136 207.853 115.687  0.00  0.00     0.202 C 
BRANCH  24  25
ATOM     25  C16  11 d         -15.041 207.556 114.500  0.00  0.00     0.202 C 
BRANCH  25  26
ATOM     26  O2   11 d         -14.623 206.301 113.893  0.00  0.00    -0.348 OA
BRANCH  26  27
ATOM     27  C17  11 d         -14.472 206.470 112.485  0.00  0.00     0.080 A 
ATOM     28  C18  11 d         -15.615 206.477 111.645  0.00  0.00    -0.028 A 
ATOM     29  C19  11 d         -15.449 206.662 110.259  0.00  0.00     0.009 A 
ATOM     30  C24  11 d         -16.991 206.153 112.173  0.00  0.00     0.051 C 
ATOM     31  C20  11 d         -14.186 206.947 109.726  0.00  0.00     0.001 A 
ATOM     32  C21  11 d         -13.073 207.031 110.569  0.00  0.00     0.009 A 
ATOM     33  C22  11 d         -13.197 206.775 111.947  0.00  0.00    -0.028 A 
ATOM     34  C23  11 d         -12.006 206.995 112.843  0.00  0.00     0.051 C 
ENDBRANCH  26  27
ENDBRANCH  25  26
ENDBRANCH  24  25
ENDBRANCH  23  24
ENDBRANCH   4  23
TORSDOF 7
ENDMDL
MODEL 8
REMARK VINA RESULT:      -8.4      5.725     10.159
REMARK  7 active torsions:
REMARK  status: ('A' for Active; 'I' for Inactive)
REMARK    1  A    between atoms: C10_13  and  C11_14 
REMARK    2  A    between atoms: C13_16  and  O3_32 
REMARK    3  A    between atoms: C14_17  and  O1_18 
REMARK    4  A    between atoms: O1_18  and  C15_19 
REMARK    5  A    between atoms: C15_19  and  C16_20 
REMARK    6  A    between atoms: C16_20  and  O2_21 
REMARK    7  A    between atoms: O2_21  and  C17_22 
ROOT
ATOM      1  C11  11 d         -11.138 206.319 118.967  0.00  0.00    -0.032 A 
ATOM      2  C12  11 d         -10.854 206.923 117.726  0.00  0.00     0.051 A 
ATOM      3  C13  11 d         -11.888 207.385 116.892  0.00  0.00     0.102 A 
ATOM      4  C14  11 d         -13.237 207.164 117.263  0.00  0.00     0.102 A 
ATOM      5  C25  11 d         -13.517 206.489 118.464  0.00  0.00     0.040 A 
ATOM      6  C26  11 d         -12.480 206.087 119.316  0.00  0.00     0.014 A 
ENDROOT
BRANCH   1   7
ATOM      7  C10  11 d         -10.078 205.819 119.883  0.00  0.00     0.036 C 
ATOM      8  C2   11 d          -8.924 206.433 120.236  0.00  0.00     0.077 A 
ATOM      9  C1   11 d          -8.424 207.792 119.908  0.00  0.00     0.271 A 
ATOM     10  S1   11 d          -7.743 205.525 121.276  0.00  0.00    -0.054 SA
ATOM     11  N1   11 d          -7.135 208.060 120.415  0.00  0.00    -0.262 N 
ATOM     12  O4   11 d          -9.082 208.664 119.237  0.00  0.00    -0.266 OA
ATOM     13  C3   11 d          -6.614 206.925 121.168  0.00  0.00     0.153 A 
ATOM     14  C4   11 d          -6.438 209.331 120.191  0.00  0.00     0.044 A 
ATOM     15  S2   11 d          -5.315 206.893 121.815  0.00  0.00    -0.052 SA
ATOM     16  C5   11 d          -6.984 210.537 120.669  0.00  0.00     0.030 A 
ATOM     17  C9   11 d          -5.217 209.353 119.493  0.00  0.00     0.030 A 
ATOM     18  C6   11 d          -6.311 211.751 120.454  0.00  0.00     0.002 A 
ATOM     19  C7   11 d          -5.092 211.764 119.761  0.00  0.00     0.000 A 
ATOM     20  C8   11 d          -4.544 210.565 119.281  0.00  0.00     0.002 A 
ENDBRANCH   1   7
BRANCH   3  21
ATOM     21  O3   11 d         -11.547 207.921 115.616  0.00  0.00    -0.353 OA
ATOM     22  C27  11 d         -10.612 209.015 115.782  0.00  0.00     0.210 C 
ENDBRANCH   3  21
BRANCH   4  23
ATOM     23  O1   11 d         -14.308 207.510 116.386  0.00  0.00    -0.346 OA
BRANCH  23  24
ATOM     24  C15  11 d         -14.608 206.406 115.488  0.00  0.00     0.202 C 
BRANCH  24  25
ATOM     25  C16  11 d         -13.847 206.588 114.181  0.00  0.00     0.202 C 
BRANCH  25  26
ATOM     26  O2   11 d         -14.234 205.528 113.262  0.00  0.00    -0.348 OA
BRANCH  26  27
ATOM     27  C17  11 d         -14.489 206.076 111.970  0.00  0.00     0.080 A 
ATOM     28  C18  11 d         -15.821 206.339 111.562  0.00  0.00    -0.028 A 
ATOM     29  C19  11 d         -16.053 206.896 110.289  0.00  0.00     0.009 A 
ATOM     30  C24  11 d         -17.006 205.912 112.392  0.00  0.00     0.051 C 
ATOM     31  C20  11 d         -14.982 207.289 109.479  0.00  0.00     0.001 A 
ATOM     32  C21  11 d         -13.666 207.113 109.922  0.00  0.00     0.009 A 
ATOM     33  C22  11 d         -13.404 206.490 111.156  0.00  0.00    -0.028 A 
ATOM     34  C23  11 d         -11.985 206.428 111.659  0.00  0.00     0.051 C 
ENDBRANCH  26  27
ENDBRANCH  25  26
ENDBRANCH  24  25
ENDBRANCH  23  24
ENDBRANCH   4  23
TORSDOF 7
ENDMDL
MODEL 9
REMARK VINA RESULT:      -8.4      5.352     10.228
REMARK  7 active torsions:
REMARK  status: ('A' for Active; 'I' for Inactive)
REMARK    1  A    between atoms: C10_13  and  C11_14 
REMARK    2  A    between atoms: C13_16  and  O3_32 
REMARK    3  A    between atoms: C14_17  and  O1_18 
REMARK    4  A    between atoms: O1_18  and  C15_19 
REMARK    5  A    between atoms: C15_19  and  C16_20 
REMARK    6  A    between atoms: C16_20  and  O2_21 
REMARK    7  A    between atoms: O2_21  and  C17_22 
ROOT
ATOM      1  C11  11 d         -10.171 208.050 118.276  0.00  0.00    -0.032 A 
ATOM      2  C12  11 d         -10.998 206.976 118.664  0.00  0.00     0.051 A 
ATOM      3  C13  11 d         -11.802 206.305 117.726  0.00  0.00     0.102 A 
ATOM      4  C14  11 d         -11.848 206.768 116.388  0.00  0.00     0.102 A 
ATOM      5  C25  11 d         -11.084 207.889 116.021  0.00  0.00     0.040 A 
ATOM      6  C26  11 d         -10.240 208.513 116.950  0.00  0.00     0.014 A 
ENDROOT
BRANCH   1   7
ATOM      7  C10  11 d          -9.301 208.786 119.231  0.00  0.00     0.036 C 
ATOM      8  C2   11 d          -7.994 208.567 119.508  0.00  0.00     0.077 A 
ATOM      9  C1   11 d          -7.030 207.622 118.887  0.00  0.00     0.271 A 
ATOM     10  S1   11 d          -7.212 209.541 120.828  0.00  0.00    -0.054 SA
ATOM     11  N1   11 d          -5.753 207.640 119.487  0.00  0.00    -0.262 N 
ATOM     12  O4   11 d          -7.302 206.857 117.896  0.00  0.00    -0.266 OA
ATOM     13  C3   11 d          -5.688 208.615 120.570  0.00  0.00     0.153 A 
ATOM     14  C4   11 d          -4.655 206.772 119.050  0.00  0.00     0.044 A 
ATOM     15  S2   11 d          -4.510 208.870 121.378  0.00  0.00    -0.052 SA
ATOM     16  C5   11 d          -4.149 206.867 117.740  0.00  0.00     0.030 A 
ATOM     17  C9   11 d          -4.100 205.835 119.940  0.00  0.00     0.030 A 
ATOM     18  C6   11 d          -3.096 206.035 117.328  0.00  0.00     0.002 A 
ATOM     19  C7   11 d          -2.544 205.105 118.223  0.00  0.00     0.000 A 
ATOM     20  C8   11 d          -3.045 205.005 119.529  0.00  0.00     0.002 A 
ENDBRANCH   1   7
BRANCH   3  21
ATOM     21  O3   11 d         -12.673 205.276 118.187  0.00  0.00    -0.353 OA
ATOM     22  C27  11 d         -13.745 205.859 118.967  0.00  0.00     0.210 C 
ENDBRANCH   3  21
BRANCH   4  23
ATOM     23  O1   11 d         -12.744 206.188 115.440  0.00  0.00    -0.346 OA
BRANCH  23  24
ATOM     24  C15  11 d         -13.805 207.123 115.103  0.00  0.00     0.202 C 
BRANCH  24  25
ATOM     25  C16  11 d         -14.972 206.371 114.479  0.00  0.00     0.202 C 
BRANCH  25  26
ATOM     26  O2   11 d         -14.464 205.507 113.423  0.00  0.00    -0.348 OA
BRANCH  26  27
ATOM     27  C17  11 d         -14.560 206.172 112.166  0.00  0.00     0.080 A 
ATOM     28  C18  11 d         -13.383 206.530 111.461  0.00  0.00    -0.028 A 
ATOM     29  C19  11 d         -13.495 207.171 110.213  0.00  0.00     0.009 A 
ATOM     30  C24  11 d         -12.012 206.371 112.072  0.00  0.00     0.051 C 
ATOM     31  C20  11 d         -14.750 207.356 109.619  0.00  0.00     0.001 A 
ATOM     32  C21  11 d         -15.906 206.918 110.274  0.00  0.00     0.009 A 
ATOM     33  C22  11 d         -15.828 206.344 111.557  0.00  0.00    -0.028 A 
ATOM     34  C23  11 d         -17.075 205.772 112.180  0.00  0.00     0.051 C 
ENDBRANCH  26  27
ENDBRANCH  25  26
ENDBRANCH  24  25
ENDBRANCH  23  24
ENDBRANCH   4  23
TORSDOF 7
ENDMDL
MODEL 10
REMARK VINA RESULT:      -8.4      6.443      9.898
REMARK  7 active torsions:
REMARK  status: ('A' for Active; 'I' for Inactive)
REMARK    1  A    between atoms: C10_13  and  C11_14 
REMARK    2  A    between atoms: C13_16  and  O3_32 
REMARK    3  A    between atoms: C14_17  and  O1_18 
REMARK    4  A    between atoms: O1_18  and  C15_19 
REMARK    5  A    between atoms: C15_19  and  C16_20 
REMARK    6  A    between atoms: C16_20  and  O2_21 
REMARK    7  A    between atoms: O2_21  and  C17_22 
ROOT
ATOM      1  C11  11 d          -9.787 207.697 118.698  0.00  0.00    -0.032 A 
ATOM      2  C12  11 d         -10.305 208.410 117.598  0.00  0.00     0.051 A 
ATOM      3  C13  11 d         -11.488 207.997 116.959  0.00  0.00     0.102 A 
ATOM      4  C14  11 d         -12.122 206.799 117.370  0.00  0.00     0.102 A 
ATOM      5  C25  11 d         -11.559 206.046 118.416  0.00  0.00     0.040 A 
ATOM      6  C26  11 d         -10.415 206.499 119.085  0.00  0.00     0.014 A 
ENDROOT
BRANCH   1   7
ATOM      7  C10  11 d          -8.544 208.099 119.408  0.00  0.00     0.036 C 
ATOM      8  C2   11 d          -7.337 208.394 118.872  0.00  0.00     0.077 A 
ATOM      9  C1   11 d          -6.922 208.504 117.450  0.00  0.00     0.271 A 
ATOM     10  S1   11 d          -5.947 208.727 119.995  0.00  0.00    -0.054 SA
ATOM     11  N1   11 d          -5.549 208.778 117.279  0.00  0.00    -0.262 N 
ATOM     12  O4   11 d          -7.715 208.375 116.452  0.00  0.00    -0.266 OA
ATOM     13  C3   11 d          -4.869 208.911 118.563  0.00  0.00     0.153 A 
ATOM     14  C4   11 d          -4.918 208.905 115.961  0.00  0.00     0.044 A 
ATOM     15  S2   11 d          -3.455 209.195 118.721  0.00  0.00    -0.052 SA
ATOM     16  C5   11 d          -5.331 209.911 115.067  0.00  0.00     0.030 A 
ATOM     17  C9   11 d          -3.896 208.017 115.579  0.00  0.00     0.030 A 
ATOM     18  C6   11 d          -4.722 210.029 113.808  0.00  0.00     0.002 A 
ATOM     19  C7   11 d          -3.700 209.143 113.436  0.00  0.00     0.000 A 
ATOM     20  C8   11 d          -3.286 208.137 114.322  0.00  0.00     0.002 A 
ENDBRANCH   1   7
BRANCH   3  21
ATOM     21  O3   11 d         -11.925 208.711 115.806  0.00  0.00    -0.353 OA
ATOM     22  C27  11 d         -10.776 209.155 115.043  0.00  0.00     0.210 C 
ENDBRANCH   3  21
BRANCH   4  23
ATOM     23  O1   11 d         -13.253 206.286 116.666  0.00  0.00    -0.346 OA
BRANCH  23  24
ATOM     24  C15  11 d         -12.885 205.922 115.307  0.00  0.00     0.202 C 
BRANCH  24  25
ATOM     25  C16  11 d         -13.947 206.421 114.337  0.00  0.00     0.202 C 
BRANCH  25  26
ATOM     26  O2   11 d         -14.066 205.471 113.241  0.00  0.00    -0.348 OA
BRANCH  26  27
ATOM     27  C17  11 d         -14.331 206.166 112.025  0.00  0.00     0.080 A 
ATOM     28  C18  11 d         -13.259 206.555 111.182  0.00  0.00    -0.028 A 
ATOM     29  C19  11 d         -13.539 207.226 109.976  0.00  0.00     0.009 A 
ATOM     30  C24  11 d         -11.818 206.396 111.604  0.00  0.00     0.051 C 
ATOM     31  C20  11 d         -14.862 207.411 109.556  0.00  0.00     0.001 A 
ATOM     32  C21  11 d         -15.919 206.944 110.345  0.00  0.00     0.009 A 
ATOM     33  C22  11 d         -15.669 206.339 111.591  0.00  0.00    -0.028 A 
ATOM     34  C23  11 d         -16.819 205.738 112.357  0.00  0.00     0.051 C 
ENDBRANCH  26  27
ENDBRANCH  25  26
ENDBRANCH  24  25
ENDBRANCH  23  24
ENDBRANCH   4  23
TORSDOF 7
ENDMDL
MODEL 11
REMARK VINA RESULT:      -8.1      4.817      9.873
REMARK  7 active torsions:
REMARK  status: ('A' for Active; 'I' for Inactive)
REMARK    1  A    between atoms: C10_13  and  C11_14 
REMARK    2  A    between atoms: C13_16  and  O3_32 
REMARK    3  A    between atoms: C14_17  and  O1_18 
REMARK    4  A    between atoms: O1_18  and  C15_19 
REMARK    5  A    between atoms: C15_19  and  C16_20 
REMARK    6  A    between atoms: C16_20  and  O2_21 
REMARK    7  A    between atoms: O2_21  and  C17_22 
ROOT
ATOM      1  C11  11 d         -11.101 205.849 119.581  0.00  0.00    -0.032 A 
ATOM      2  C12  11 d         -12.429 205.960 120.040  0.00  0.00     0.051 A 
ATOM      3  C13  11 d         -13.476 206.277 119.157  0.00  0.00     0.102 A 
ATOM      4  C14  11 d         -13.184 206.575 117.804  0.00  0.00     0.102 A 
ATOM      5  C25  11 d         -11.848 206.542 117.366  0.00  0.00     0.040 A 
ATOM      6  C26  11 d         -10.820 206.166 118.239  0.00  0.00     0.014 A 
ENDROOT
BRANCH   1   7
ATOM      7  C10  11 d          -9.962 205.511 120.476  0.00  0.00     0.036 C 
ATOM      8  C2   11 d          -8.836 206.228 120.699  0.00  0.00     0.077 A 
ATOM      9  C1   11 d          -8.448 207.577 120.213  0.00  0.00     0.271 A 
ATOM     10  S1   11 d          -7.542 205.505 121.750  0.00  0.00    -0.054 SA
ATOM     11  N1   11 d          -7.156 207.975 120.615  0.00  0.00    -0.262 N 
ATOM     12  O4   11 d          -9.198 208.334 119.502  0.00  0.00    -0.266 OA
ATOM     13  C3   11 d          -6.519 206.956 121.441  0.00  0.00     0.153 A 
ATOM     14  C4   11 d          -6.560 209.259 120.230  0.00  0.00     0.044 A 
ATOM     15  S2   11 d          -5.189 207.070 122.010  0.00  0.00    -0.052 SA
ATOM     16  C5   11 d          -7.162 210.470 120.622  0.00  0.00     0.030 A 
ATOM     17  C9   11 d          -5.382 209.287 119.461  0.00  0.00     0.030 A 
ATOM     18  C6   11 d          -6.586 211.695 120.252  0.00  0.00     0.002 A 
ATOM     19  C7   11 d          -5.408 211.717 119.489  0.00  0.00     0.000 A 
ATOM     20  C8   11 d          -4.806 210.513 119.095  0.00  0.00     0.002 A 
ENDBRANCH   1   7
BRANCH   3  21
ATOM     21  O3   11 d         -14.787 206.448 119.688  0.00  0.00    -0.353 OA
ATOM     22  C27  11 d         -15.214 205.224 120.335  0.00  0.00     0.210 C 
ENDBRANCH   3  21
BRANCH   4  23
ATOM     23  O1   11 d         -14.204 207.019 116.910  0.00  0.00    -0.346 OA
BRANCH  23  24
ATOM     24  C15  11 d         -14.572 205.958 115.987  0.00  0.00     0.202 C 
BRANCH  24  25
ATOM     25  C16  11 d         -14.946 206.558 114.639  0.00  0.00     0.202 C 
BRANCH  25  26
ATOM     26  O2   11 d         -14.749 205.551 113.606  0.00  0.00    -0.348 OA
BRANCH  26  27
ATOM     27  C17  11 d         -14.664 206.178 112.329  0.00  0.00     0.080 A 
ATOM     28  C18  11 d         -13.396 206.473 111.767  0.00  0.00    -0.028 A 
ATOM     29  C19  11 d         -13.330 207.078 110.497  0.00  0.00     0.009 A 
ATOM     30  C24  11 d         -12.118 206.289 112.549  0.00  0.00     0.051 C 
ATOM     31  C20  11 d         -14.493 207.284 109.746  0.00  0.00     0.001 A 
ATOM     32  C21  11 d         -15.737 206.907 110.264  0.00  0.00     0.009 A 
ATOM     33  C22  11 d         -15.840 206.372 111.562  0.00  0.00    -0.028 A 
ATOM     34  C23  11 d         -17.175 205.862 112.040  0.00  0.00     0.051 C 
ENDBRANCH  26  27
ENDBRANCH  25  26
ENDBRANCH  24  25
ENDBRANCH  23  24
ENDBRANCH   4  23
TORSDOF 7
ENDMDL
MODEL 12
REMARK VINA RESULT:      -8.0      1.598      2.672
REMARK  7 active torsions:
REMARK  status: ('A' for Active; 'I' for Inactive)
REMARK    1  A    between atoms: C10_13  and  C11_14 
REMARK    2  A    between atoms: C13_16  and  O3_32 
REMARK    3  A    between atoms: C14_17  and  O1_18 
REMARK    4  A    between atoms: O1_18  and  C15_19 
REMARK    5  A    between atoms: C15_19  and  C16_20 
REMARK    6  A    between atoms: C16_20  and  O2_21 
REMARK    7  A    between atoms: O2_21  and  C17_22 
ROOT
ATOM      1  C11  11 d         -12.133 206.993 118.195  0.00  0.00    -0.032 A 
ATOM      2  C12  11 d         -11.583 206.247 119.257  0.00  0.00     0.051 A 
ATOM      3  C13  11 d         -12.403 205.710 120.266  0.00  0.00     0.102 A 
ATOM      4  C14  11 d         -13.790 205.995 120.265  0.00  0.00     0.102 A 
ATOM      5  C25  11 d         -14.324 206.807 119.248  0.00  0.00     0.040 A 
ATOM      6  C26  11 d         -13.509 207.285 118.214  0.00  0.00     0.014 A 
ENDROOT
BRANCH   1   7
ATOM      7  C10  11 d         -11.307 207.575 117.104  0.00  0.00     0.036 C 
ATOM      8  C2   11 d         -11.557 207.565 115.774  0.00  0.00     0.077 A 
ATOM      9  C1   11 d         -12.744 207.076 115.026  0.00  0.00     0.271 A 
ATOM     10  S1   11 d         -10.298 208.240 114.651  0.00  0.00    -0.054 SA
ATOM     11  N1   11 d         -12.615 207.183 113.625  0.00  0.00    -0.262 N 
ATOM     12  O4   11 d         -13.801 206.604 115.574  0.00  0.00    -0.266 OA
ATOM     13  C3   11 d         -11.337 207.779 113.253  0.00  0.00     0.153 A 
ATOM     14  C4   11 d         -13.656 206.739 112.692  0.00  0.00     0.044 A 
ATOM     15  S2   11 d         -10.909 208.023 111.888  0.00  0.00    -0.052 SA
ATOM     16  C5   11 d         -14.935 207.327 112.719  0.00  0.00     0.030 A 
ATOM     17  C9   11 d         -13.382 205.717 111.764  0.00  0.00     0.030 A 
ATOM     18  C6   11 d         -15.926 206.900 111.822  0.00  0.00     0.002 A 
ATOM     19  C7   11 d         -15.645 205.883 110.896  0.00  0.00     0.000 A 
ATOM     20  C8   11 d         -14.373 205.293 110.867  0.00  0.00     0.002 A 
ENDBRANCH   1   7
BRANCH   3  21
ATOM     21  O3   11 d         -11.786 205.028 121.354  0.00  0.00    -0.353 OA
ATOM     22  C27  11 d         -10.347 205.173 121.267  0.00  0.00     0.210 C 
ENDBRANCH   3  21
BRANCH   4  23
ATOM     23  O1   11 d         -14.630 205.570 121.338  0.00  0.00    -0.346 OA
BRANCH  23  24
ATOM     24  C15  11 d         -15.858 206.348 121.363  0.00  0.00     0.202 C 
BRANCH  24  25
ATOM     25  C16  11 d         -16.802 205.780 122.414  0.00  0.00     0.202 C 
BRANCH  25  26
ATOM     26  O2   11 d         -16.960 204.352 122.180  0.00  0.00    -0.348 OA
BRANCH  26  27
ATOM     27  C17  11 d         -18.100 204.119 121.356  0.00  0.00     0.080 A 
ATOM     28  C18  11 d         -17.935 203.586 120.052  0.00  0.00    -0.028 A 
ATOM     29  C19  11 d         -19.072 203.346 119.257  0.00  0.00     0.009 A 
ATOM     30  C24  11 d         -16.570 203.397 119.437  0.00  0.00     0.051 C 
ATOM     31  C20  11 d         -20.358 203.526 119.782  0.00  0.00     0.001 A 
ATOM     32  C21  11 d         -20.520 203.965 121.101  0.00  0.00     0.009 A 
ATOM     33  C22  11 d         -19.401 204.285 121.892  0.00  0.00    -0.028 A 
ATOM     34  C23  11 d         -19.606 204.635 123.344  0.00  0.00     0.051 C 
ENDBRANCH  26  27
ENDBRANCH  25  26
ENDBRANCH  24  25
ENDBRANCH  23  24
ENDBRANCH   4  23
TORSDOF 7
ENDMDL
MODEL 13
REMARK VINA RESULT:      -8.0      4.828     10.651
REMARK  7 active torsions:
REMARK  status: ('A' for Active; 'I' for Inactive)
REMARK    1  A    between atoms: C10_13  and  C11_14 
REMARK    2  A    between atoms: C13_16  and  O3_32 
REMARK    3  A    between atoms: C14_17  and  O1_18 
REMARK    4  A    between atoms: O1_18  and  C15_19 
REMARK    5  A    between atoms: C15_19  and  C16_20 
REMARK    6  A    between atoms: C16_20  and  O2_21 
REMARK    7  A    between atoms: O2_21  and  C17_22 
ROOT
ATOM      1  C11  11 d         -14.704 205.510 120.028  0.00  0.00    -0.032 A 
ATOM      2  C12  11 d         -14.079 206.673 119.534  0.00  0.00     0.051 A 
ATOM      3  C13  11 d         -13.696 206.771 118.184  0.00  0.00     0.102 A 
ATOM      4  C14  11 d         -13.861 205.656 117.328  0.00  0.00     0.102 A 
ATOM      5  C25  11 d         -14.411 204.468 117.844  0.00  0.00     0.040 A 
ATOM      6  C26  11 d         -14.845 204.402 119.174  0.00  0.00     0.014 A 
ENDROOT
BRANCH   1   7
ATOM      7  C10  11 d         -15.131 205.363 121.445  0.00  0.00     0.036 C 
ATOM      8  C2   11 d         -14.358 205.110 122.526  0.00  0.00     0.077 A 
ATOM      9  C1   11 d         -12.881 205.006 122.644  0.00  0.00     0.271 A 
ATOM     10  S1   11 d         -15.170 204.847 124.130  0.00  0.00    -0.054 SA
ATOM     11  N1   11 d         -12.437 204.671 123.940  0.00  0.00    -0.262 N 
ATOM     12  O4   11 d         -12.061 205.204 121.678  0.00  0.00    -0.266 OA
ATOM     13  C3   11 d         -13.555 204.530 124.865  0.00  0.00     0.153 A 
ATOM     14  C4   11 d         -11.020 204.493 124.277  0.00  0.00     0.044 A 
ATOM     15  S2   11 d         -13.424 204.192 126.270  0.00  0.00    -0.052 SA
ATOM     16  C5   11 d         -10.115 205.561 124.137  0.00  0.00     0.030 A 
ATOM     17  C9   11 d         -10.557 203.248 124.742  0.00  0.00     0.030 A 
ATOM     18  C6   11 d          -8.760 205.386 124.463  0.00  0.00     0.002 A 
ATOM     19  C7   11 d          -8.306 204.143 124.930  0.00  0.00     0.000 A 
ATOM     20  C8   11 d          -9.204 203.075 125.071  0.00  0.00     0.002 A 
ENDBRANCH   1   7
BRANCH   3  21
ATOM     21  O3   11 d         -13.002 207.940 117.756  0.00  0.00    -0.353 OA
ATOM     22  C27  11 d         -11.590 207.803 118.052  0.00  0.00     0.210 C 
ENDBRANCH   3  21
BRANCH   4  23
ATOM     23  O1   11 d         -13.372 205.678 115.987  0.00  0.00    -0.346 OA
BRANCH  23  24
ATOM     24  C15  11 d         -13.987 206.761 115.238  0.00  0.00     0.202 C 
BRANCH  24  25
ATOM     25  C16  11 d         -15.129 206.215 114.392  0.00  0.00     0.202 C 
BRANCH  25  26
ATOM     26  O2   11 d         -14.579 205.327 113.377  0.00  0.00    -0.348 OA
BRANCH  26  27
ATOM     27  C17  11 d         -14.610 205.968 112.105  0.00  0.00     0.080 A 
ATOM     28  C18  11 d         -15.852 206.276 111.495  0.00  0.00    -0.028 A 
ATOM     29  C19  11 d         -15.865 206.924 110.245  0.00  0.00     0.009 A 
ATOM     30  C24  11 d         -17.162 205.805 112.079  0.00  0.00     0.051 C 
ATOM     31  C20  11 d         -14.671 207.361 109.659  0.00  0.00     0.001 A 
ATOM     32  C21  11 d         -13.450 207.139 110.306  0.00  0.00     0.009 A 
ATOM     33  C22  11 d         -13.402 206.426 111.519  0.00  0.00    -0.028 A 
ATOM     34  C23  11 d         -12.090 206.312 112.250  0.00  0.00     0.051 C 
ENDBRANCH  26  27
ENDBRANCH  25  26
ENDBRANCH  24  25
ENDBRANCH  23  24
ENDBRANCH   4  23
TORSDOF 7
ENDMDL
MODEL 14
REMARK VINA RESULT:      -7.9      5.847     10.924
REMARK  7 active torsions:
REMARK  status: ('A' for Active; 'I' for Inactive)
REMARK    1  A    between atoms: C10_13  and  C11_14 
REMARK    2  A    between atoms: C13_16  and  O3_32 
REMARK    3  A    between atoms: C14_17  and  O1_18 
REMARK    4  A    between atoms: O1_18  and  C15_19 
REMARK    5  A    between atoms: C15_19  and  C16_20 
REMARK    6  A    between atoms: C16_20  and  O2_21 
REMARK    7  A    between atoms: O2_21  and  C17_22 
ROOT
ATOM      1  C11  11 d          -9.306 207.163 118.569  0.00  0.00    -0.032 A 
ATOM      2  C12  11 d         -10.706 207.200 118.731  0.00  0.00     0.051 A 
ATOM      3  C13  11 d         -11.541 207.675 117.705  0.00  0.00     0.102 A 
ATOM      4  C14  11 d         -10.966 208.203 116.524  0.00  0.00     0.102 A 
ATOM      5  C25  11 d          -9.565 208.239 116.398  0.00  0.00     0.040 A 
ATOM      6  C26  11 d          -8.745 207.708 117.401  0.00  0.00     0.014 A 
ENDROOT
BRANCH   1   7
ATOM      7  C10  11 d          -8.384 206.665 119.625  0.00  0.00     0.036 C 
ATOM      8  C2   11 d          -7.359 207.324 120.214  0.00  0.00     0.077 A 
ATOM      9  C1   11 d          -6.917 208.734 120.068  0.00  0.00     0.271 A 
ATOM     10  S1   11 d          -6.307 206.418 121.387  0.00  0.00    -0.054 SA
ATOM     11  N1   11 d          -5.759 209.046 120.812  0.00  0.00    -0.262 N 
ATOM     12  O4   11 d          -7.515 209.610 119.349  0.00  0.00    -0.266 OA
ATOM     13  C3   11 d          -5.288 207.893 121.571  0.00  0.00     0.153 A 
ATOM     14  C4   11 d          -5.135 210.373 120.797  0.00  0.00     0.044 A 
ATOM     15  S2   11 d          -4.122 207.896 122.433  0.00  0.00    -0.052 SA
ATOM     16  C5   11 d          -5.847 211.501 121.247  0.00  0.00     0.030 A 
ATOM     17  C9   11 d          -3.817 210.528 120.328  0.00  0.00     0.030 A 
ATOM     18  C6   11 d          -5.244 212.769 121.233  0.00  0.00     0.002 A 
ATOM     19  C7   11 d          -3.928 212.915 120.768  0.00  0.00     0.000 A 
ATOM     20  C8   11 d          -3.214 211.795 120.317  0.00  0.00     0.002 A 
ENDBRANCH   1   7
BRANCH   3  21
ATOM     21  O3   11 d         -12.942 207.759 117.951  0.00  0.00    -0.353 OA
ATOM     22  C27  11 d         -13.391 206.557 118.625  0.00  0.00     0.210 C 
ENDBRANCH   3  21
BRANCH   4  23
ATOM     23  O1   11 d         -11.777 208.805 115.515  0.00  0.00    -0.346 OA
BRANCH  23  24
ATOM     24  C15  11 d         -11.895 207.925 114.364  0.00  0.00     0.202 C 
BRANCH  24  25
ATOM     25  C16  11 d         -13.220 207.178 114.424  0.00  0.00     0.202 C 
BRANCH  25  26
ATOM     26  O2   11 d         -13.195 206.098 113.448  0.00  0.00    -0.348 OA
BRANCH  26  27
ATOM     27  C17  11 d         -13.908 206.488 112.276  0.00  0.00     0.080 A 
ATOM     28  C18  11 d         -13.206 206.738 111.069  0.00  0.00    -0.028 A 
ATOM     29  C19  11 d         -13.928 207.105 109.917  0.00  0.00     0.009 A 
ATOM     30  C24  11 d         -11.698 206.759 111.017  0.00  0.00     0.051 C 
ATOM     31  C20  11 d         -15.327 207.117 109.928  0.00  0.00     0.001 A 
ATOM     32  C21  11 d         -16.022 206.781 111.096  0.00  0.00     0.009 A 
ATOM     33  C22  11 d         -15.325 206.484 112.282  0.00  0.00    -0.028 A 
ATOM     34  C23  11 d         -16.097 206.005 113.484  0.00  0.00     0.051 C 
ENDBRANCH  26  27
ENDBRANCH  25  26
ENDBRANCH  24  25
ENDBRANCH  23  24
ENDBRANCH   4  23
TORSDOF 7
ENDMDL
MODEL 15
REMARK VINA RESULT:      -7.9      1.693      2.281
REMARK  7 active torsions:
REMARK  status: ('A' for Active; 'I' for Inactive)
REMARK    1  A    between atoms: C10_13  and  C11_14 
REMARK    2  A    between atoms: C13_16  and  O3_32 
REMARK    3  A    between atoms: C14_17  and  O1_18 
REMARK    4  A    between atoms: O1_18  and  C15_19 
REMARK    5  A    between atoms: C15_19  and  C16_20 
REMARK    6  A    between atoms: C16_20  and  O2_21 
REMARK    7  A    between atoms: O2_21  and  C17_22 
ROOT
ATOM      1  C11  11 d         -11.715 206.976 117.816  0.00  0.00    -0.032 A 
ATOM      2  C12  11 d         -11.125 206.336 118.925  0.00  0.00     0.051 A 
ATOM      3  C13  11 d         -11.916 205.801 119.957  0.00  0.00     0.102 A 
ATOM      4  C14  11 d         -13.320 205.981 119.927  0.00  0.00     0.102 A 
ATOM      5  C25  11 d         -13.900 206.690 118.860  0.00  0.00     0.040 A 
ATOM      6  C26  11 d         -13.109 207.167 117.807  0.00  0.00     0.014 A 
ENDROOT
BRANCH   1   7
ATOM      7  C10  11 d         -10.920 207.553 116.700  0.00  0.00     0.036 C 
ATOM      8  C2   11 d         -11.231 207.582 115.383  0.00  0.00     0.077 A 
ATOM      9  C1   11 d         -12.468 207.152 114.682  0.00  0.00     0.271 A 
ATOM     10  S1   11 d         -10.002 208.238 114.216  0.00  0.00    -0.054 SA
ATOM     11  N1   11 d         -12.401 207.285 113.279  0.00  0.00    -0.262 N 
ATOM     12  O4   11 d         -13.516 206.705 115.270  0.00  0.00    -0.266 OA
ATOM     13  C3   11 d         -11.121 207.844 112.859  0.00  0.00     0.153 A 
ATOM     14  C4   11 d         -13.499 206.899 112.387  0.00  0.00     0.044 A 
ATOM     15  S2   11 d         -10.749 208.104 111.481  0.00  0.00    -0.052 SA
ATOM     16  C5   11 d         -14.754 207.530 112.486  0.00  0.00     0.030 A 
ATOM     17  C9   11 d         -13.306 205.889 111.427  0.00  0.00     0.030 A 
ATOM     18  C6   11 d         -15.801 207.158 111.628  0.00  0.00     0.002 A 
ATOM     19  C7   11 d         -15.599 206.153 110.669  0.00  0.00     0.000 A 
ATOM     20  C8   11 d         -14.352 205.519 110.568  0.00  0.00     0.002 A 
ENDBRANCH   1   7
BRANCH   3  21
ATOM     21  O3   11 d         -11.265 205.230 121.089  0.00  0.00    -0.353 OA
ATOM     22  C27  11 d          -9.830 205.380 120.951  0.00  0.00     0.210 C 
ENDBRANCH   3  21
BRANCH   4  23
ATOM     23  O1   11 d         -14.140 205.558 121.016  0.00  0.00    -0.346 OA
BRANCH  23  24
ATOM     24  C15  11 d         -15.222 206.504 121.238  0.00  0.00     0.202 C 
BRANCH  24  25
ATOM     25  C16  11 d         -16.085 206.033 122.400  0.00  0.00     0.202 C 
BRANCH  25  26
ATOM     26  O2   11 d         -17.422 206.588 122.247  0.00  0.00    -0.348 OA
BRANCH  26  27
ATOM     27  C17  11 d         -18.380 205.712 122.836  0.00  0.00     0.080 A 
ATOM     28  C18  11 d         -18.922 206.008 124.113  0.00  0.00    -0.028 A 
ATOM     29  C19  11 d         -19.880 205.141 124.673  0.00  0.00     0.009 A 
ATOM     30  C24  11 d         -18.401 207.150 124.951  0.00  0.00     0.051 C 
ATOM     31  C20  11 d         -20.376 204.059 123.936  0.00  0.00     0.001 A 
ATOM     32  C21  11 d         -19.907 203.820 122.639  0.00  0.00     0.009 A 
ATOM     33  C22  11 d         -18.894 204.626 122.084  0.00  0.00    -0.028 A 
ATOM     34  C23  11 d         -18.501 204.420 120.645  0.00  0.00     0.051 C 
ENDBRANCH  26  27
ENDBRANCH  25  26
ENDBRANCH  24  25
ENDBRANCH  23  24
ENDBRANCH   4  23
TORSDOF 7
ENDMDL
MODEL 16
REMARK VINA RESULT:      -7.9      1.446      2.407
REMARK  7 active torsions:
REMARK  status: ('A' for Active; 'I' for Inactive)
REMARK    1  A    between atoms: C10_13  and  C11_14 
REMARK    2  A    between atoms: C13_16  and  O3_32 
REMARK    3  A    between atoms: C14_17  and  O1_18 
REMARK    4  A    between atoms: O1_18  and  C15_19 
REMARK    5  A    between atoms: C15_19  and  C16_20 
REMARK    6  A    between atoms: C16_20  and  O2_21 
REMARK    7  A    between atoms: O2_21  and  C17_22 
ROOT
ATOM      1  C11  11 d         -13.535 206.352 118.455  0.00  0.00    -0.032 A 
ATOM      2  C12  11 d         -13.924 205.008 118.282  0.00  0.00     0.051 A 
ATOM      3  C13  11 d         -14.970 204.454 119.041  0.00  0.00     0.102 A 
ATOM      4  C14  11 d         -15.585 205.230 120.054  0.00  0.00     0.102 A 
ATOM      5  C25  11 d         -15.140 206.545 120.279  0.00  0.00     0.040 A 
ATOM      6  C26  11 d         -14.139 207.106 119.477  0.00  0.00     0.014 A 
ENDROOT
BRANCH   1   7
ATOM      7  C10  11 d         -12.438 206.982 117.673  0.00  0.00     0.036 C 
ATOM      8  C2   11 d         -12.365 207.158 116.333  0.00  0.00     0.077 A 
ATOM      9  C1   11 d         -13.369 206.878 115.274  0.00  0.00     0.271 A 
ATOM     10  S1   11 d         -10.835 207.843 115.631  0.00  0.00    -0.054 SA
ATOM     11  N1   11 d         -12.905 207.142 113.969  0.00  0.00    -0.262 N 
ATOM     12  O4   11 d         -14.554 206.444 115.497  0.00  0.00    -0.266 OA
ATOM     13  C3   11 d         -11.540 207.656 113.983  0.00  0.00     0.153 A 
ATOM     14  C4   11 d         -13.721 206.915 112.771  0.00  0.00     0.044 A 
ATOM     15  S2   11 d         -10.786 208.023 112.799  0.00  0.00    -0.052 SA
ATOM     16  C5   11 d         -14.930 207.614 112.589  0.00  0.00     0.030 A 
ATOM     17  C9   11 d         -13.301 205.993 111.795  0.00  0.00     0.030 A 
ATOM     18  C6   11 d         -15.706 207.394 111.440  0.00  0.00     0.002 A 
ATOM     19  C7   11 d         -15.278 206.476 110.468  0.00  0.00     0.000 A 
ATOM     20  C8   11 d         -14.075 205.776 110.645  0.00  0.00     0.002 A 
ENDBRANCH   1   7
BRANCH   3  21
ATOM     21  O3   11 d         -15.272 203.071 118.878  0.00  0.00    -0.353 OA
ATOM     22  C27  11 d         -15.672 202.819 117.508  0.00  0.00     0.210 C 
ENDBRANCH   3  21
BRANCH   4  23
ATOM     23  O1   11 d         -16.564 204.662 120.924  0.00  0.00    -0.346 OA
BRANCH  23  24
ATOM     24  C15  11 d         -17.517 205.674 121.350  0.00  0.00     0.202 C 
BRANCH  24  25
ATOM     25  C16  11 d         -18.306 205.162 122.547  0.00  0.00     0.202 C 
BRANCH  25  26
ATOM     26  O2   11 d         -17.763 205.759 123.758  0.00  0.00    -0.348 OA
BRANCH  26  27
ATOM     27  C17  11 d         -17.378 204.735 124.672  0.00  0.00     0.080 A 
ATOM     28  C18  11 d         -16.008 204.401 124.828  0.00  0.00    -0.028 A 
ATOM     29  C19  11 d         -15.644 203.399 125.747  0.00  0.00     0.009 A 
ATOM     30  C24  11 d         -14.941 204.988 123.936  0.00  0.00     0.051 C 
ATOM     31  C20  11 d         -16.606 202.815 126.580  0.00  0.00     0.001 A 
ATOM     32  C21  11 d         -17.944 203.211 126.490  0.00  0.00     0.009 A 
ATOM     33  C22  11 d         -18.348 204.155 125.527  0.00  0.00    -0.028 A 
ATOM     34  C23  11 d         -19.771 204.651 125.540  0.00  0.00     0.051 C 
ENDBRANCH  26  27
ENDBRANCH  25  26
ENDBRANCH  24  25
ENDBRANCH  23  24
ENDBRANCH   4  23
TORSDOF 7
ENDMDL
MODEL 17
REMARK VINA RESULT:      -7.9      4.433     11.603
REMARK  7 active torsions:
REMARK  status: ('A' for Active; 'I' for Inactive)
REMARK    1  A    between atoms: C10_13  and  C11_14 
REMARK    2  A    between atoms: C13_16  and  O3_32 
REMARK    3  A    between atoms: C14_17  and  O1_18 
REMARK    4  A    between atoms: O1_18  and  C15_19 
REMARK    5  A    between atoms: C15_19  and  C16_20 
REMARK    6  A    between atoms: C16_20  and  O2_21 
REMARK    7  A    between atoms: O2_21  and  C17_22 
ROOT
ATOM      1  C11  11 d         -13.879 205.409 115.737  0.00  0.00    -0.032 A 
ATOM      2  C12  11 d         -14.231 206.611 115.090  0.00  0.00     0.051 A 
ATOM      3  C13  11 d         -13.248 207.448 114.533  0.00  0.00     0.102 A 
ATOM      4  C14  11 d         -11.879 207.124 114.697  0.00  0.00     0.102 A 
ATOM      5  C25  11 d         -11.528 205.965 115.412  0.00  0.00     0.040 A 
ATOM      6  C26  11 d         -12.516 205.107 115.910  0.00  0.00     0.014 A 
ENDROOT
BRANCH   1   7
ATOM      7  C10  11 d         -14.883 204.491 116.336  0.00  0.00     0.036 C 
ATOM      8  C2   11 d         -15.121 204.257 117.648  0.00  0.00     0.077 A 
ATOM      9  C1   11 d         -14.541 204.900 118.855  0.00  0.00     0.271 A 
ATOM     10  S1   11 d         -16.327 202.974 118.096  0.00  0.00    -0.054 SA
ATOM     11  N1   11 d         -14.997 204.344 120.068  0.00  0.00    -0.262 N 
ATOM     12  O4   11 d         -13.708 205.873 118.828  0.00  0.00    -0.266 OA
ATOM     13  C3   11 d         -15.960 203.274 119.834  0.00  0.00     0.153 A 
ATOM     14  C4   11 d         -14.538 204.809 121.382  0.00  0.00     0.044 A 
ATOM     15  S2   11 d         -16.612 202.509 120.881  0.00  0.00    -0.052 SA
ATOM     16  C5   11 d         -14.769 206.137 121.788  0.00  0.00     0.030 A 
ATOM     17  C9   11 d         -13.860 203.929 122.244  0.00  0.00     0.030 A 
ATOM     18  C6   11 d         -14.329 206.576 123.047  0.00  0.00     0.002 A 
ATOM     19  C7   11 d         -13.657 205.691 123.904  0.00  0.00     0.000 A 
ATOM     20  C8   11 d         -13.423 204.368 123.503  0.00  0.00     0.002 A 
ENDBRANCH   1   7
BRANCH   3  21
ATOM     21  O3   11 d         -13.654 208.686 113.957  0.00  0.00    -0.353 OA
ATOM     22  C27  11 d         -14.449 209.431 114.913  0.00  0.00     0.210 C 
ENDBRANCH   3  21
BRANCH   4  23
ATOM     23  O1   11 d         -10.854 208.011 114.251  0.00  0.00    -0.346 OA
BRANCH  23  24
ATOM     24  C15  11 d         -10.494 208.945 115.306  0.00  0.00     0.202 C 
BRANCH  24  25
ATOM     25  C16  11 d          -8.979 209.053 115.400  0.00  0.00     0.202 C 
BRANCH  25  26
ATOM     26  O2   11 d          -8.508 209.969 114.372  0.00  0.00    -0.348 OA
BRANCH  26  27
ATOM     27  C17  11 d          -7.329 209.450 113.762  0.00  0.00     0.080 A 
ATOM     28  C18  11 d          -7.410 208.781 112.515  0.00  0.00    -0.028 A 
ATOM     29  C19  11 d          -6.233 208.288 111.919  0.00  0.00     0.009 A 
ATOM     30  C24  11 d          -8.737 208.457 111.872  0.00  0.00     0.051 C 
ATOM     31  C20  11 d          -4.983 208.550 112.492  0.00  0.00     0.001 A 
ATOM     32  C21  11 d          -4.896 209.290 113.676  0.00  0.00     0.009 A 
ATOM     33  C22  11 d          -6.061 209.729 114.333  0.00  0.00    -0.028 A 
ATOM     34  C23  11 d          -5.930 210.627 115.536  0.00  0.00     0.051 C 
ENDBRANCH  26  27
ENDBRANCH  25  26
ENDBRANCH  24  25
ENDBRANCH  23  24
ENDBRANCH   4  23
TORSDOF 7
ENDMDL
MODEL 18
REMARK VINA RESULT:      -7.6      5.246     11.027
REMARK  7 active torsions:
REMARK  status: ('A' for Active; 'I' for Inactive)
REMARK    1  A    between atoms: C10_13  and  C11_14 
REMARK    2  A    between atoms: C13_16  and  O3_32 
REMARK    3  A    between atoms: C14_17  and  O1_18 
REMARK    4  A    between atoms: O1_18  and  C15_19 
REMARK    5  A    between atoms: C15_19  and  C16_20 
REMARK    6  A    between atoms: C16_20  and  O2_21 
REMARK    7  A    between atoms: O2_21  and  C17_22 
ROOT
ATOM      1  C11  11 d         -15.498 204.650 120.887  0.00  0.00    -0.032 A 
ATOM      2  C12  11 d         -14.468 205.530 120.496  0.00  0.00     0.051 A 
ATOM      3  C13  11 d         -13.955 205.508 119.187  0.00  0.00     0.102 A 
ATOM      4  C14  11 d         -14.418 204.532 118.271  0.00  0.00     0.102 A 
ATOM      5  C25  11 d         -15.389 203.604 118.688  0.00  0.00     0.040 A 
ATOM      6  C26  11 d         -15.936 203.673 119.975  0.00  0.00     0.014 A 
ENDROOT
BRANCH   1   7
ATOM      7  C10  11 d         -16.074 204.640 122.258  0.00  0.00     0.036 C 
ATOM      8  C2   11 d         -15.608 203.996 123.353  0.00  0.00     0.077 A 
ATOM      9  C1   11 d         -14.363 203.209 123.543  0.00  0.00     0.271 A 
ATOM     10  S1   11 d         -16.596 204.052 124.878  0.00  0.00    -0.054 SA
ATOM     11  N1   11 d         -14.246 202.633 124.826  0.00  0.00    -0.262 N 
ATOM     12  O4   11 d         -13.459 203.055 122.648  0.00  0.00    -0.266 OA
ATOM     13  C3   11 d         -15.384 202.978 125.670  0.00  0.00     0.153 A 
ATOM     14  C4   11 d         -13.109 201.796 125.224  0.00  0.00     0.044 A 
ATOM     15  S2   11 d         -15.555 202.541 127.042  0.00  0.00    -0.052 SA
ATOM     16  C5   11 d         -11.804 202.325 125.235  0.00  0.00     0.030 A 
ATOM     17  C9   11 d         -13.316 200.456 125.597  0.00  0.00     0.030 A 
ATOM     18  C6   11 d         -10.720 201.520 125.619  0.00  0.00     0.002 A 
ATOM     19  C7   11 d         -10.934 200.185 125.994  0.00  0.00     0.000 A 
ATOM     20  C8   11 d         -12.232 199.653 125.984  0.00  0.00     0.002 A 
ENDBRANCH   1   7
BRANCH   3  21
ATOM     21  O3   11 d         -12.865 206.368 118.868  0.00  0.00    -0.353 OA
ATOM     22  C27  11 d         -13.369 207.606 118.307  0.00  0.00     0.210 C 
ENDBRANCH   3  21
BRANCH   4  23
ATOM     23  O1   11 d         -13.834 204.403 116.975  0.00  0.00    -0.346 OA
BRANCH  23  24
ATOM     24  C15  11 d         -14.731 204.923 115.957  0.00  0.00     0.202 C 
BRANCH  24  25
ATOM     25  C16  11 d         -13.944 205.762 114.960  0.00  0.00     0.202 C 
BRANCH  25  26
ATOM     26  O2   11 d         -14.858 206.671 114.285  0.00  0.00    -0.348 OA
BRANCH  26  27
ATOM     27  C17  11 d         -14.638 206.624 112.878  0.00  0.00     0.080 A 
ATOM     28  C18  11 d         -15.709 206.315 112.002  0.00  0.00    -0.028 A 
ATOM     29  C19  11 d         -15.477 206.289 110.613  0.00  0.00     0.009 A 
ATOM     30  C24  11 d         -17.056 205.875 112.519  0.00  0.00     0.051 C 
ATOM     31  C20  11 d         -14.235 206.672 110.092  0.00  0.00     0.001 A 
ATOM     32  C21  11 d         -13.206 207.066 110.954  0.00  0.00     0.009 A 
ATOM     33  C22  11 d         -13.386 207.028 112.349  0.00  0.00    -0.028 A 
ATOM     34  C23  11 d         -12.303 207.576 113.243  0.00  0.00     0.051 C 
ENDBRANCH  26  27
ENDBRANCH  25  26
ENDBRANCH  24  25
ENDBRANCH  23  24
ENDBRANCH   4  23
TORSDOF 7
ENDMDL
MODEL 19
REMARK VINA RESULT:      -7.6      5.893     10.278
REMARK  7 active torsions:
REMARK  status: ('A' for Active; 'I' for Inactive)
REMARK    1  A    between atoms: C10_13  and  C11_14 
REMARK    2  A    between atoms: C13_16  and  O3_32 
REMARK    3  A    between atoms: C14_17  and  O1_18 
REMARK    4  A    between atoms: O1_18  and  C15_19 
REMARK    5  A    between atoms: C15_19  and  C16_20 
REMARK    6  A    between atoms: C16_20  and  O2_21 
REMARK    7  A    between atoms: O2_21  and  C17_22 
ROOT
ATOM      1  C11  11 d          -9.459 207.798 118.420  0.00  0.00    -0.032 A 
ATOM      2  C12  11 d         -10.604 206.976 118.447  0.00  0.00     0.051 A 
ATOM      3  C13  11 d         -11.371 206.765 117.287  0.00  0.00     0.102 A 
ATOM      4  C14  11 d         -11.040 207.454 116.095  0.00  0.00     0.102 A 
ATOM      5  C25  11 d          -9.944 208.336 116.093  0.00  0.00     0.040 A 
ATOM      6  C26  11 d          -9.151 208.493 117.237  0.00  0.00     0.014 A 
ENDROOT
BRANCH   1   7
ATOM      7  C10  11 d          -8.615 208.047 119.619  0.00  0.00     0.036 C 
ATOM      8  C2   11 d          -7.420 207.492 119.927  0.00  0.00     0.077 A 
ATOM      9  C1   11 d          -6.561 206.571 119.140  0.00  0.00     0.271 A 
ATOM     10  S1   11 d          -6.671 207.883 121.536  0.00  0.00    -0.054 SA
ATOM     11  N1   11 d          -5.398 206.156 119.823  0.00  0.00    -0.262 N 
ATOM     12  O4   11 d          -6.822 206.178 117.948  0.00  0.00    -0.266 OA
ATOM     13  C3   11 d          -5.314 206.764 121.146  0.00  0.00     0.153 A 
ATOM     14  C4   11 d          -4.421 205.229 119.243  0.00  0.00     0.044 A 
ATOM     15  S2   11 d          -4.235 206.536 122.089  0.00  0.00    -0.052 SA
ATOM     16  C5   11 d          -3.727 205.568 118.066  0.00  0.00     0.030 A 
ATOM     17  C9   11 d          -4.171 203.990 119.861  0.00  0.00     0.030 A 
ATOM     18  C6   11 d          -2.791 204.677 117.517  0.00  0.00     0.002 A 
ATOM     19  C7   11 d          -2.544 203.445 118.142  0.00  0.00     0.000 A 
ATOM     20  C8   11 d          -3.233 203.102 119.314  0.00  0.00     0.002 A 
ENDBRANCH   1   7
BRANCH   3  21
ATOM     21  O3   11 d         -12.559 205.984 117.388  0.00  0.00    -0.353 OA
ATOM     22  C27  11 d         -13.537 206.690 118.191  0.00  0.00     0.210 C 
ENDBRANCH   3  21
BRANCH   4  23
ATOM     23  O1   11 d         -11.866 207.359 114.936  0.00  0.00    -0.346 OA
BRANCH  23  24
ATOM     24  C15  11 d         -11.384 206.312 114.050  0.00  0.00     0.202 C 
BRANCH  24  25
ATOM     25  C16  11 d         -12.084 206.418 112.702  0.00  0.00     0.202 C 
BRANCH  25  26
ATOM     26  O2   11 d         -13.099 207.458 112.781  0.00  0.00    -0.348 OA
BRANCH  26  27
ATOM     27  C17  11 d         -14.364 206.932 112.385  0.00  0.00     0.080 A 
ATOM     28  C18  11 d         -15.329 206.589 113.365  0.00  0.00    -0.028 A 
ATOM     29  C19  11 d         -16.579 206.086 112.956  0.00  0.00     0.009 A 
ATOM     30  C24  11 d         -15.006 206.613 114.840  0.00  0.00     0.051 C 
ATOM     31  C20  11 d         -16.911 206.029 111.597  0.00  0.00     0.001 A 
ATOM     32  C21  11 d         -15.991 206.455 110.632  0.00  0.00     0.009 A 
ATOM     33  C22  11 d         -14.707 206.890 111.010  0.00  0.00    -0.028 A 
ATOM     34  C23  11 d         -13.787 207.457 109.960  0.00  0.00     0.051 C 
ENDBRANCH  26  27
ENDBRANCH  25  26
ENDBRANCH  24  25
ENDBRANCH  23  24
ENDBRANCH   4  23
TORSDOF 7
ENDMDL
MODEL 20
REMARK VINA RESULT:      -7.6      6.875     10.522
REMARK  7 active torsions:
REMARK  status: ('A' for Active; 'I' for Inactive)
REMARK    1  A    between atoms: C10_13  and  C11_14 
REMARK    2  A    between atoms: C13_16  and  O3_32 
REMARK    3  A    between atoms: C14_17  and  O1_18 
REMARK    4  A    between atoms: O1_18  and  C15_19 
REMARK    5  A    between atoms: C15_19  and  C16_20 
REMARK    6  A    between atoms: C16_20  and  O2_21 
REMARK    7  A    between atoms: O2_21  and  C17_22 
ROOT
ATOM      1  C11  11 d          -9.576 207.626 118.713  0.00  0.00    -0.032 A 
ATOM      2  C12  11 d          -9.318 208.475 117.617  0.00  0.00     0.051 A 
ATOM      3  C13  11 d         -10.148 208.465 116.482  0.00  0.00     0.102 A 
ATOM      4  C14  11 d         -11.209 207.530 116.400  0.00  0.00     0.102 A 
ATOM      5  C25  11 d         -11.415 206.630 117.461  0.00  0.00     0.040 A 
ATOM      6  C26  11 d         -10.620 206.689 118.612  0.00  0.00     0.014 A 
ENDROOT
BRANCH   1   7
ATOM      7  C10  11 d          -8.729 207.605 119.935  0.00  0.00     0.036 C 
ATOM      8  C2   11 d          -7.474 207.117 120.071  0.00  0.00     0.077 A 
ATOM      9  C1   11 d          -6.547 206.563 119.052  0.00  0.00     0.271 A 
ATOM     10  S1   11 d          -6.725 207.103 121.727  0.00  0.00    -0.054 SA
ATOM     11  N1   11 d          -5.329 206.096 119.588  0.00  0.00    -0.262 N 
ATOM     12  O4   11 d          -6.799 206.508 117.797  0.00  0.00    -0.266 OA
ATOM     13  C3   11 d          -5.270 206.298 121.031  0.00  0.00     0.153 A 
ATOM     14  C4   11 d          -4.277 205.488 118.766  0.00  0.00     0.044 A 
ATOM     15  S2   11 d          -4.147 205.925 121.870  0.00  0.00    -0.052 SA
ATOM     16  C5   11 d          -3.656 206.227 117.741  0.00  0.00     0.030 A 
ATOM     17  C9   11 d          -3.882 204.157 118.996  0.00  0.00     0.030 A 
ATOM     18  C6   11 d          -2.648 205.641 116.959  0.00  0.00     0.002 A 
ATOM     19  C7   11 d          -2.257 204.315 117.198  0.00  0.00     0.000 A 
ATOM     20  C8   11 d          -2.872 203.573 118.216  0.00  0.00     0.002 A 
ENDBRANCH   1   7
BRANCH   3  21
ATOM     21  O3   11 d          -9.797 209.289 115.374  0.00  0.00    -0.353 OA
ATOM     22  C27  11 d          -8.472 208.936 114.904  0.00  0.00     0.210 C 
ENDBRANCH   3  21
BRANCH   4  23
ATOM     23  O1   11 d         -11.994 207.410 115.214  0.00  0.00    -0.346 OA
BRANCH  23  24
ATOM     24  C15  11 d         -11.559 206.266 114.429  0.00  0.00     0.202 C 
BRANCH  24  25
ATOM     25  C16  11 d         -12.124 206.369 113.019  0.00  0.00     0.202 C 
BRANCH  25  26
ATOM     26  O2   11 d         -13.047 207.492 112.963  0.00  0.00    -0.348 OA
BRANCH  26  27
ATOM     27  C17  11 d         -14.291 207.071 112.408  0.00  0.00     0.080 A 
ATOM     28  C18  11 d         -14.428 206.925 111.004  0.00  0.00    -0.028 A 
ATOM     29  C19  11 d         -15.658 206.491 110.474  0.00  0.00     0.009 A 
ATOM     30  C24  11 d         -13.339 207.353 110.051  0.00  0.00     0.051 C 
ATOM     31  C20  11 d         -16.701 206.102 111.323  0.00  0.00     0.001 A 
ATOM     32  C21  11 d         -16.533 206.160 112.711  0.00  0.00     0.009 A 
ATOM     33  C22  11 d         -15.341 206.661 113.267  0.00  0.00    -0.028 A 
ATOM     34  C23  11 d         -15.144 206.593 114.760  0.00  0.00     0.051 C 
ENDBRANCH  26  27
ENDBRANCH  25  26
ENDBRANCH  24  25
ENDBRANCH  23  24
ENDBRANCH   4  23
TORSDOF 7
ENDMDL
