MODEL 1
REMARK VINA RESULT:      -7.9      0.000      0.000
REMARK  1 active torsions:
REMARK  status: ('A' for Active; 'I' for Inactive)
REMARK    1  A    between atoms: C4_5  and  S1_13 
ROOT
ATOM      1  C1   11 d          -8.849 208.497 113.926  0.00  0.00     0.268 A 
ATOM      2  C2   11 d         -10.134 208.295 114.449  0.00  0.00     0.076 A 
ATOM      3  C3   11 d         -10.292 208.289 115.820  0.00  0.00     0.117 A 
ATOM      4  N1   11 d          -9.255 208.464 116.672  0.00  0.00    -0.216 NA
ATOM      5  C4   11 d          -8.003 208.660 116.165  0.00  0.00     0.174 A 
ATOM      6  N2   11 d          -7.790 208.685 114.796  0.00  0.00    -0.257 N 
ATOM      7  C5   11 d          -6.466 208.914 114.268  0.00  0.00     0.044 A 
ATOM      8  C6   11 d          -5.794 207.892 113.568  0.00  0.00     0.030 A 
ATOM      9  C7   11 d          -4.508 208.116 113.051  0.00  0.00     0.002 A 
ATOM     10  C8   11 d          -3.887 209.362 113.229  0.00  0.00     0.000 A 
ATOM     11  C9   11 d          -4.553 210.386 113.920  0.00  0.00     0.002 A 
ATOM     12  C10  11 d          -5.838 210.163 114.436  0.00  0.00     0.030 A 
ATOM     13  S2   11 d         -11.728 208.046 116.159  0.00  0.00    -0.073 SA
ATOM     14  C11  11 d         -12.360 207.924 114.797  0.00  0.00    -0.004 A 
ATOM     15  C12  11 d         -11.375 208.100 113.819  0.00  0.00    -0.025 A 
ATOM     16  C13  11 d         -11.645 207.882 112.351  0.00  0.00     0.049 C 
ATOM     17  C14  11 d         -12.944 207.063 112.099  0.00  0.00    -0.043 C 
ATOM     18  C15  11 d         -14.094 207.648 112.972  0.00  0.00     0.018 C 
ATOM     19  C16  11 d         -13.817 207.641 114.499  0.00  0.00     0.023 C 
ATOM     20  C17  11 d         -14.760 208.611 115.228  0.00  0.00     0.015 C 
ATOM     21  C18  11 d         -12.714 205.566 112.415  0.00  0.00     0.015 C 
ATOM     22  C19  11 d         -13.333 207.180 110.609  0.00  0.00     0.015 C 
ATOM     23  O1   11 d          -8.673 208.535 112.679  0.00  0.00    -0.267 OA
ENDROOT
BRANCH   5  24
ATOM     24  S1   11 d          -6.669 208.842 117.377  0.00  0.00    -0.104 SA
ATOM     25  H6   11 d          -6.473 210.210 117.016  0.00  0.00     0.110 HD
ENDBRANCH   5  24
TORSDOF 1
ENDMDL
MODEL 2
REMARK VINA RESULT:      -7.8      4.041      6.342
REMARK  1 active torsions:
REMARK  status: ('A' for Active; 'I' for Inactive)
REMARK    1  A    between atoms: C4_5  and  S1_13 
ROOT
ATOM      1  C1   11 d         -12.939 206.475 116.167  0.00  0.00     0.268 A 
ATOM      2  C2   11 d         -12.465 206.871 114.909  0.00  0.00     0.076 A 
ATOM      3  C3   11 d         -11.368 207.706 114.852  0.00  0.00     0.117 A 
ATOM      4  N1   11 d         -10.740 208.158 115.963  0.00  0.00    -0.216 NA
ATOM      5  C4   11 d         -11.200 207.774 117.190  0.00  0.00     0.174 A 
ATOM      6  N2   11 d         -12.293 206.929 117.303  0.00  0.00    -0.257 N 
ATOM      7  C5   11 d         -12.759 206.512 118.604  0.00  0.00     0.044 A 
ATOM      8  C6   11 d         -14.019 206.931 119.075  0.00  0.00     0.030 A 
ATOM      9  C7   11 d         -14.475 206.521 120.338  0.00  0.00     0.002 A 
ATOM     10  C8   11 d         -13.676 205.690 121.137  0.00  0.00     0.000 A 
ATOM     11  C9   11 d         -12.423 205.264 120.672  0.00  0.00     0.002 A 
ATOM     12  C10  11 d         -11.967 205.671 119.410  0.00  0.00     0.030 A 
ATOM     13  S2   11 d         -11.042 208.012 113.425  0.00  0.00    -0.073 SA
ATOM     14  C11  11 d         -12.097 207.232 112.684  0.00  0.00    -0.004 A 
ATOM     15  C12  11 d         -12.901 206.559 113.610  0.00  0.00    -0.025 A 
ATOM     16  C13  11 d         -14.148 205.813 113.205  0.00  0.00     0.049 C 
ATOM     17  C14  11 d         -14.653 206.219 111.790  0.00  0.00    -0.043 C 
ATOM     18  C15  11 d         -13.451 206.218 110.799  0.00  0.00     0.018 C 
ATOM     19  C16  11 d         -12.293 207.178 111.184  0.00  0.00     0.023 C 
ATOM     20  C17  11 d         -11.003 206.800 110.441  0.00  0.00     0.015 C 
ATOM     21  C18  11 d         -15.336 207.607 111.833  0.00  0.00     0.015 C 
ATOM     22  C19  11 d         -15.700 205.188 111.314  0.00  0.00     0.015 C 
ATOM     23  O1   11 d         -13.922 205.693 116.255  0.00  0.00    -0.267 OA
ENDROOT
BRANCH   5  24
ATOM     24  S1   11 d         -10.328 208.460 118.621  0.00  0.00    -0.104 SA
ATOM     25  H6   11 d         -11.539 208.536 119.374  0.00  0.00     0.110 HD
ENDBRANCH   5  24
TORSDOF 1
ENDMDL
MODEL 3
REMARK VINA RESULT:      -7.7      2.673      3.062
REMARK  1 active torsions:
REMARK  status: ('A' for Active; 'I' for Inactive)
REMARK    1  A    between atoms: C4_5  and  S1_13 
ROOT
ATOM      1  C1   11 d          -8.476 208.506 116.824  0.00  0.00     0.268 A 
ATOM      2  C2   11 d          -9.853 208.258 116.732  0.00  0.00     0.076 A 
ATOM      3  C3   11 d         -10.563 208.048 117.896  0.00  0.00     0.117 A 
ATOM      4  N1   11 d          -9.980 208.070 119.117  0.00  0.00    -0.216 NA
ATOM      5  C4   11 d          -8.639 208.311 119.211  0.00  0.00     0.174 A 
ATOM      6  N2   11 d          -7.881 208.537 118.073  0.00  0.00    -0.257 N 
ATOM      7  C5   11 d          -6.468 208.812 118.182  0.00  0.00     0.044 A 
ATOM      8  C6   11 d          -5.524 207.892 117.683  0.00  0.00     0.030 A 
ATOM      9  C7   11 d          -4.150 208.162 117.785  0.00  0.00     0.002 A 
ATOM     10  C8   11 d          -3.711 209.352 118.384  0.00  0.00     0.000 A 
ATOM     11  C9   11 d          -4.645 210.275 118.879  0.00  0.00     0.002 A 
ATOM     12  C10  11 d          -6.018 210.007 118.776  0.00  0.00     0.030 A 
ATOM     13  S2   11 d         -11.999 207.791 117.569  0.00  0.00    -0.073 SA
ATOM     14  C11  11 d         -12.006 207.889 116.066  0.00  0.00    -0.004 A 
ATOM     15  C12  11 d         -10.712 208.187 115.623  0.00  0.00    -0.025 A 
ATOM     16  C13  11 d         -10.343 208.199 114.161  0.00  0.00     0.049 C 
ATOM     17  C14  11 d         -11.386 207.457 113.275  0.00  0.00    -0.043 C 
ATOM     18  C15  11 d         -12.817 207.930 113.667  0.00  0.00     0.018 C 
ATOM     19  C16  11 d         -13.196 207.687 115.153  0.00  0.00     0.023 C 
ATOM     20  C17  11 d         -14.396 208.558 115.558  0.00  0.00     0.015 C 
ATOM     21  C18  11 d         -11.245 205.924 113.435  0.00  0.00     0.015 C 
ATOM     22  C19  11 d         -11.127 207.806 111.793  0.00  0.00     0.015 C 
ATOM     23  O1   11 d          -7.803 208.727 115.784  0.00  0.00    -0.267 OA
ENDROOT
BRANCH   5  24
ATOM     24  S1   11 d          -7.935 208.278 120.879  0.00  0.00    -0.104 SA
ATOM     25  H6   11 d          -8.184 209.673 121.056  0.00  0.00     0.110 HD
ENDBRANCH   5  24
TORSDOF 1
ENDMDL
MODEL 4
REMARK VINA RESULT:      -7.6      2.194      3.383
REMARK  1 active torsions:
REMARK  status: ('A' for Active; 'I' for Inactive)
REMARK    1  A    between atoms: C4_5  and  S1_13 
ROOT
ATOM      1  C1   11 d          -9.244 208.340 114.489  0.00  0.00     0.268 A 
ATOM      2  C2   11 d         -10.347 207.964 113.709  0.00  0.00     0.076 A 
ATOM      3  C3   11 d         -10.167 207.805 112.350  0.00  0.00     0.117 A 
ATOM      4  N1   11 d          -8.972 208.003 111.746  0.00  0.00    -0.216 NA
ATOM      5  C4   11 d          -7.896 208.370 112.503  0.00  0.00     0.174 A 
ATOM      6  N2   11 d          -8.020 208.534 113.874  0.00  0.00    -0.257 N 
ATOM      7  C5   11 d          -6.872 208.902 114.670  0.00  0.00     0.044 A 
ATOM      8  C6   11 d          -6.824 210.157 115.308  0.00  0.00     0.030 A 
ATOM      9  C7   11 d          -5.710 210.513 116.085  0.00  0.00     0.002 A 
ATOM     10  C8   11 d          -4.641 209.617 116.231  0.00  0.00     0.000 A 
ATOM     11  C9   11 d          -4.684 208.363 115.602  0.00  0.00     0.002 A 
ATOM     12  C10  11 d          -5.797 208.006 114.826  0.00  0.00     0.030 A 
ATOM     13  S2   11 d         -11.464 207.418 111.714  0.00  0.00    -0.073 SA
ATOM     14  C11  11 d         -12.397 207.374 112.896  0.00  0.00    -0.004 A 
ATOM     15  C12  11 d         -11.679 207.686 114.056  0.00  0.00    -0.025 A 
ATOM     16  C13  11 d         -12.350 207.883 115.392  0.00  0.00     0.049 C 
ATOM     17  C14  11 d         -13.882 208.121 115.261  0.00  0.00    -0.043 C 
ATOM     18  C15  11 d         -14.484 207.057 114.295  0.00  0.00     0.018 C 
ATOM     19  C16  11 d         -13.878 207.063 112.866  0.00  0.00     0.023 C 
ATOM     20  C17  11 d         -14.182 205.743 112.141  0.00  0.00     0.015 C 
ATOM     21  C18  11 d         -14.170 209.555 114.756  0.00  0.00     0.015 C 
ATOM     22  C19  11 d         -14.537 207.967 116.652  0.00  0.00     0.015 C 
ATOM     23  O1   11 d          -9.366 208.469 115.735  0.00  0.00    -0.267 OA
ENDROOT
BRANCH   5  24
ATOM     24  S1   11 d          -6.348 208.655 111.608  0.00  0.00    -0.104 SA
ATOM     25  H6   11 d          -6.083 207.254 111.537  0.00  0.00     0.110 HD
ENDBRANCH   5  24
TORSDOF 1
ENDMDL
MODEL 5
REMARK VINA RESULT:      -7.6      2.328      7.391
REMARK  1 active torsions:
REMARK  status: ('A' for Active; 'I' for Inactive)
REMARK    1  A    between atoms: C4_5  and  S1_13 
ROOT
ATOM      1  C1   11 d         -10.339 208.007 114.694  0.00  0.00     0.268 A 
ATOM      2  C2   11 d          -9.032 208.372 114.341  0.00  0.00     0.076 A 
ATOM      3  C3   11 d          -8.687 208.370 113.005  0.00  0.00     0.117 A 
ATOM      4  N1   11 d          -9.559 208.025 112.029  0.00  0.00    -0.216 NA
ATOM      5  C4   11 d         -10.832 207.668 112.369  0.00  0.00     0.174 A 
ATOM      6  N2   11 d         -11.233 207.662 113.696  0.00  0.00    -0.257 N 
ATOM      7  C5   11 d         -12.588 207.304 114.046  0.00  0.00     0.044 A 
ATOM      8  C6   11 d         -12.845 206.125 114.773  0.00  0.00     0.030 A 
ATOM      9  C7   11 d         -14.161 205.779 115.117  0.00  0.00     0.002 A 
ATOM     10  C8   11 d         -15.228 206.609 114.738  0.00  0.00     0.000 A 
ATOM     11  C9   11 d         -14.978 207.787 114.018  0.00  0.00     0.002 A 
ATOM     12  C10  11 d         -13.663 208.135 113.675  0.00  0.00     0.030 A 
ATOM     13  S2   11 d          -7.255 208.775 112.856  0.00  0.00    -0.073 SA
ATOM     14  C11  11 d          -6.841 209.012 114.285  0.00  0.00    -0.004 A 
ATOM     15  C12  11 d          -7.937 208.779 115.122  0.00  0.00    -0.025 A 
ATOM     16  C13  11 d          -7.819 208.775 116.625  0.00  0.00     0.049 C 
ATOM     17  C14  11 d          -6.346 208.632 117.107  0.00  0.00    -0.043 C 
ATOM     18  C15  11 d          -5.448 209.624 116.309  0.00  0.00     0.018 C 
ATOM     19  C16  11 d          -5.467 209.421 114.770  0.00  0.00     0.023 C 
ATOM     20  C17  11 d          -4.942 210.672 114.050  0.00  0.00     0.015 C 
ATOM     21  C18  11 d          -5.854 207.175 116.932  0.00  0.00     0.015 C 
ATOM     22  C19  11 d          -6.271 208.981 118.610  0.00  0.00     0.015 C 
ATOM     23  O1   11 d         -10.695 208.023 115.901  0.00  0.00    -0.267 OA
ENDROOT
BRANCH   5  24
ATOM     24  S1   11 d         -11.918 207.180 111.005  0.00  0.00    -0.104 SA
ATOM     25  H6   11 d         -11.233 208.044 110.097  0.00  0.00     0.110 HD
ENDBRANCH   5  24
TORSDOF 1
ENDMDL
MODEL 6
REMARK VINA RESULT:      -7.4      2.678      4.570
REMARK  1 active torsions:
REMARK  status: ('A' for Active; 'I' for Inactive)
REMARK    1  A    between atoms: C4_5  and  S1_13 
ROOT
ATOM      1  C1   11 d          -9.651 207.914 117.071  0.00  0.00     0.268 A 
ATOM      2  C2   11 d         -10.006 207.997 115.718  0.00  0.00     0.076 A 
ATOM      3  C3   11 d          -9.090 208.521 114.829  0.00  0.00     0.117 A 
ATOM      4  N1   11 d          -7.870 208.960 115.216  0.00  0.00    -0.216 NA
ATOM      5  C4   11 d          -7.521 208.880 116.533  0.00  0.00     0.174 A 
ATOM      6  N2   11 d          -8.400 208.353 117.467  0.00  0.00    -0.257 N 
ATOM      7  C5   11 d          -8.015 208.253 118.855  0.00  0.00     0.044 A 
ATOM      8  C6   11 d          -8.668 209.031 119.831  0.00  0.00     0.030 A 
ATOM      9  C7   11 d          -8.297 208.930 121.181  0.00  0.00     0.002 A 
ATOM     10  C8   11 d          -7.273 208.051 121.564  0.00  0.00     0.000 A 
ATOM     11  C9   11 d          -6.621 207.269 120.598  0.00  0.00     0.002 A 
ATOM     12  C10  11 d          -6.992 207.368 119.248  0.00  0.00     0.030 A 
ATOM     13  S2   11 d          -9.675 208.531 113.452  0.00  0.00    -0.073 SA
ATOM     14  C11  11 d         -11.040 207.936 113.683  0.00  0.00    -0.004 A 
ATOM     15  C12  11 d         -11.176 207.619 115.039  0.00  0.00    -0.025 A 
ATOM     16  C13  11 d         -12.482 207.152 115.631  0.00  0.00     0.049 C 
ATOM     17  C14  11 d         -13.699 207.462 114.712  0.00  0.00    -0.043 C 
ATOM     18  C15  11 d         -13.364 207.026 113.255  0.00  0.00     0.018 C 
ATOM     19  C16  11 d         -12.117 207.718 112.642  0.00  0.00     0.023 C 
ATOM     20  C17  11 d         -11.602 206.932 111.426  0.00  0.00     0.015 C 
ATOM     21  C18  11 d         -14.058 208.967 114.773  0.00  0.00     0.015 C 
ATOM     22  C19  11 d         -14.924 206.663 115.210  0.00  0.00     0.015 C 
ATOM     23  O1   11 d         -10.452 207.417 117.906  0.00  0.00    -0.267 OA
ENDROOT
BRANCH   5  24
ATOM     24  S1   11 d          -5.887 209.528 116.969  0.00  0.00    -0.104 SA
ATOM     25  H6   11 d          -5.234 208.490 116.237  0.00  0.00     0.110 HD
ENDBRANCH   5  24
TORSDOF 1
ENDMDL
MODEL 7
REMARK VINA RESULT:      -7.3      2.104      7.200
REMARK  1 active torsions:
REMARK  status: ('A' for Active; 'I' for Inactive)
REMARK    1  A    between atoms: C4_5  and  S1_13 
ROOT
ATOM      1  C1   11 d         -10.223 208.034 115.905  0.00  0.00     0.268 A 
ATOM      2  C2   11 d          -9.128 208.186 116.767  0.00  0.00     0.076 A 
ATOM      3  C3   11 d          -9.343 208.088 118.127  0.00  0.00     0.117 A 
ATOM      4  N1   11 d         -10.568 207.857 118.654  0.00  0.00    -0.216 NA
ATOM      5  C4   11 d         -11.636 207.709 117.818  0.00  0.00     0.174 A 
ATOM      6  N2   11 d         -11.474 207.789 116.443  0.00  0.00    -0.257 N 
ATOM      7  C5   11 d         -12.606 207.611 115.565  0.00  0.00     0.044 A 
ATOM      8  C6   11 d         -13.079 208.688 114.789  0.00  0.00     0.030 A 
ATOM      9  C7   11 d         -14.176 208.513 113.931  0.00  0.00     0.002 A 
ATOM     10  C8   11 d         -14.806 207.262 113.842  0.00  0.00     0.000 A 
ATOM     11  C9   11 d         -14.337 206.184 114.608  0.00  0.00     0.002 A 
ATOM     12  C10  11 d         -13.240 206.357 115.464  0.00  0.00     0.030 A 
ATOM     13  S2   11 d          -8.054 208.293 118.855  0.00  0.00    -0.073 SA
ATOM     14  C11  11 d          -7.082 208.513 117.725  0.00  0.00    -0.004 A 
ATOM     15  C12  11 d          -7.767 208.419 116.509  0.00  0.00    -0.025 A 
ATOM     16  C13  11 d          -7.116 208.744 115.188  0.00  0.00     0.049 C 
ATOM     17  C14  11 d          -5.808 209.570 115.355  0.00  0.00    -0.043 C 
ATOM     18  C15  11 d          -4.926 208.913 116.458  0.00  0.00     0.018 C 
ATOM     19  C16  11 d          -5.602 208.807 117.851  0.00  0.00     0.023 C 
ATOM     20  C17  11 d          -4.876 207.778 118.732  0.00  0.00     0.015 C 
ATOM     21  C18  11 d          -6.133 211.041 115.709  0.00  0.00     0.015 C 
ATOM     22  C19  11 d          -5.033 209.563 114.019  0.00  0.00     0.015 C 
ATOM     23  O1   11 d         -10.059 208.091 114.658  0.00  0.00    -0.267 OA
ENDROOT
BRANCH   5  24
ATOM     24  S1   11 d         -13.243 207.447 118.610  0.00  0.00    -0.104 SA
ATOM     25  H6   11 d         -13.543 208.842 118.559  0.00  0.00     0.110 HD
ENDBRANCH   5  24
TORSDOF 1
ENDMDL
MODEL 8
REMARK VINA RESULT:      -7.2      2.529      3.751
REMARK  1 active torsions:
REMARK  status: ('A' for Active; 'I' for Inactive)
REMARK    1  A    between atoms: C4_5  and  S1_13 
ROOT
ATOM      1  C1   11 d          -7.888 208.716 115.490  0.00  0.00     0.268 A 
ATOM      2  C2   11 d          -8.753 208.507 114.406  0.00  0.00     0.076 A 
ATOM      3  C3   11 d          -8.297 208.799 113.136  0.00  0.00     0.117 A 
ATOM      4  N1   11 d          -7.054 209.280 112.902  0.00  0.00    -0.216 NA
ATOM      5  C4   11 d          -6.210 209.484 113.955  0.00  0.00     0.174 A 
ATOM      6  N2   11 d          -6.614 209.199 115.250  0.00  0.00    -0.257 N 
ATOM      7  C5   11 d          -5.708 209.398 116.357  0.00  0.00     0.044 A 
ATOM      8  C6   11 d          -5.973 210.389 117.323  0.00  0.00     0.030 A 
ATOM      9  C7   11 d          -5.094 210.579 118.401  0.00  0.00     0.002 A 
ATOM     10  C8   11 d          -3.947 209.781 118.521  0.00  0.00     0.000 A 
ATOM     11  C9   11 d          -3.680 208.788 117.566  0.00  0.00     0.002 A 
ATOM     12  C10  11 d          -4.558 208.596 116.489  0.00  0.00     0.030 A 
ATOM     13  S2   11 d          -9.376 208.519 112.139  0.00  0.00    -0.073 SA
ATOM     14  C11  11 d         -10.498 208.025 113.015  0.00  0.00    -0.004 A 
ATOM     15  C12  11 d         -10.068 208.019 114.347  0.00  0.00    -0.025 A 
ATOM     16  C13  11 d         -11.002 207.727 115.495  0.00  0.00     0.049 C 
ATOM     17  C14  11 d         -12.500 207.858 115.094  0.00  0.00    -0.043 C 
ATOM     18  C15  11 d         -12.738 207.102 113.753  0.00  0.00     0.018 C 
ATOM     19  C16  11 d         -11.881 207.609 112.562  0.00  0.00     0.023 C 
ATOM     20  C17  11 d         -11.837 206.562 111.439  0.00  0.00     0.015 C 
ATOM     21  C18  11 d         -12.903 209.347 114.971  0.00  0.00     0.015 C 
ATOM     22  C19  11 d         -13.375 207.219 116.195  0.00  0.00     0.015 C 
ATOM     23  O1   11 d          -8.262 208.436 116.659  0.00  0.00    -0.267 OA
ENDROOT
BRANCH   5  24
ATOM     24  S1   11 d          -4.583 210.171 113.556  0.00  0.00    -0.104 SA
ATOM     25  H6   11 d          -4.775 209.922 112.162  0.00  0.00     0.110 HD
ENDBRANCH   5  24
TORSDOF 1
ENDMDL
MODEL 9
REMARK VINA RESULT:      -7.0      3.746      4.517
REMARK  1 active torsions:
REMARK  status: ('A' for Active; 'I' for Inactive)
REMARK    1  A    between atoms: C4_5  and  S1_13 
ROOT
ATOM      1  C1   11 d         -11.599 207.339 115.391  0.00  0.00     0.268 A 
ATOM      2  C2   11 d         -12.698 206.908 114.633  0.00  0.00     0.076 A 
ATOM      3  C3   11 d         -13.729 206.261 115.282  0.00  0.00     0.117 A 
ATOM      4  N1   11 d         -13.716 206.024 116.614  0.00  0.00    -0.216 NA
ATOM      5  C4   11 d         -12.648 206.442 117.354  0.00  0.00     0.174 A 
ATOM      6  N2   11 d         -11.589 207.106 116.754  0.00  0.00    -0.257 N 
ATOM      7  C5   11 d         -10.472 207.564 117.547  0.00  0.00     0.044 A 
ATOM      8  C6   11 d          -9.197 206.992 117.374  0.00  0.00     0.030 A 
ATOM      9  C7   11 d          -8.110 207.440 118.142  0.00  0.00     0.002 A 
ATOM     10  C8   11 d          -8.291 208.462 119.086  0.00  0.00     0.000 A 
ATOM     11  C9   11 d          -9.558 209.040 119.260  0.00  0.00     0.002 A 
ATOM     12  C10  11 d         -10.644 208.594 118.492  0.00  0.00     0.030 A 
ATOM     13  S2   11 d         -14.783 205.878 114.292  0.00  0.00    -0.073 SA
ATOM     14  C11  11 d         -14.211 206.402 113.001  0.00  0.00    -0.004 A 
ATOM     15  C12  11 d         -12.984 207.021 113.263  0.00  0.00    -0.025 A 
ATOM     16  C13  11 d         -12.076 207.513 112.164  0.00  0.00     0.049 C 
ATOM     17  C14  11 d         -12.430 206.898 110.778  0.00  0.00    -0.043 C 
ATOM     18  C15  11 d         -13.968 207.000 110.552  0.00  0.00     0.018 C 
ATOM     19  C16  11 d         -14.830 206.281 111.625  0.00  0.00     0.023 C 
ATOM     20  C17  11 d         -16.278 206.792 111.589  0.00  0.00     0.015 C 
ATOM     21  C18  11 d         -11.953 205.428 110.697  0.00  0.00     0.015 C 
ATOM     22  C19  11 d         -11.703 207.695 109.672  0.00  0.00     0.015 C 
ATOM     23  O1   11 d         -10.652 207.957 114.836  0.00  0.00    -0.267 OA
ENDROOT
BRANCH   5  24
ATOM     24  S1   11 d         -12.693 206.046 119.121  0.00  0.00    -0.104 SA
ATOM     25  H6   11 d         -13.513 207.182 119.396  0.00  0.00     0.110 HD
ENDBRANCH   5  24
TORSDOF 1
ENDMDL
MODEL 10
REMARK VINA RESULT:      -6.9      2.613      7.399
REMARK  1 active torsions:
REMARK  status: ('A' for Active; 'I' for Inactive)
REMARK    1  A    between atoms: C4_5  and  S1_13 
ROOT
ATOM      1  C1   11 d         -10.729 207.821 115.548  0.00  0.00     0.268 A 
ATOM      2  C2   11 d          -9.393 208.244 115.590  0.00  0.00     0.076 A 
ATOM      3  C3   11 d          -8.743 208.489 114.398  0.00  0.00     0.117 A 
ATOM      4  N1   11 d          -9.345 208.332 113.196  0.00  0.00    -0.216 NA
ATOM      5  C4   11 d         -10.645 207.919 113.151  0.00  0.00     0.174 A 
ATOM      6  N2   11 d         -11.347 207.668 114.320  0.00  0.00    -0.257 N 
ATOM      7  C5   11 d         -12.729 207.253 114.265  0.00  0.00     0.044 A 
ATOM      8  C6   11 d         -13.099 205.960 114.685  0.00  0.00     0.030 A 
ATOM      9  C7   11 d         -14.443 205.558 114.636  0.00  0.00     0.002 A 
ATOM     10  C8   11 d         -15.425 206.444 114.168  0.00  0.00     0.000 A 
ATOM     11  C9   11 d         -15.064 207.735 113.753  0.00  0.00     0.002 A 
ATOM     12  C10  11 d         -13.722 208.139 113.803  0.00  0.00     0.030 A 
ATOM     13  S2   11 d          -7.335 208.913 114.671  0.00  0.00    -0.073 SA
ATOM     14  C11  11 d          -7.280 208.881 116.176  0.00  0.00    -0.004 A 
ATOM     15  C12  11 d          -8.532 208.498 116.671  0.00  0.00    -0.025 A 
ATOM     16  C13  11 d          -8.770 208.216 118.133  0.00  0.00     0.049 C 
ATOM     17  C14  11 d          -7.448 207.985 118.920  0.00  0.00    -0.043 C 
ATOM     18  C15  11 d          -6.431 209.107 118.552  0.00  0.00     0.018 C 
ATOM     19  C16  11 d          -6.078 209.192 117.043  0.00  0.00     0.023 C 
ATOM     20  C17  11 d          -5.453 210.554 116.706  0.00  0.00     0.015 C 
ATOM     21  C18  11 d          -6.866 206.585 118.608  0.00  0.00     0.015 C 
ATOM     22  C19  11 d          -7.744 208.050 120.434  0.00  0.00     0.015 C 
ATOM     23  O1   11 d         -11.360 207.614 116.617  0.00  0.00    -0.267 OA
ENDROOT
BRANCH   5  24
ATOM     24  S1   11 d         -11.357 207.693 111.502  0.00  0.00    -0.104 SA
ATOM     25  H6   11 d         -10.905 206.339 111.448  0.00  0.00     0.110 HD
ENDBRANCH   5  24
TORSDOF 1
ENDMDL
MODEL 11
REMARK VINA RESULT:      -6.9      3.664      7.781
REMARK  1 active torsions:
REMARK  status: ('A' for Active; 'I' for Inactive)
REMARK    1  A    between atoms: C4_5  and  S1_13 
ROOT
ATOM      1  C1   11 d         -10.405 207.311 117.256  0.00  0.00     0.268 A 
ATOM      2  C2   11 d          -9.795 207.027 118.486  0.00  0.00     0.076 A 
ATOM      3  C3   11 d         -10.416 206.136 119.337  0.00  0.00     0.117 A 
ATOM      4  N1   11 d         -11.589 205.533 119.030  0.00  0.00    -0.216 NA
ATOM      5  C4   11 d         -12.185 205.808 117.833  0.00  0.00     0.174 A 
ATOM      6  N2   11 d         -11.599 206.689 116.937  0.00  0.00    -0.257 N 
ATOM      7  C5   11 d         -12.226 206.958 115.664  0.00  0.00     0.044 A 
ATOM      8  C6   11 d         -12.743 208.238 115.384  0.00  0.00     0.030 A 
ATOM      9  C7   11 d         -13.348 208.501 114.145  0.00  0.00     0.002 A 
ATOM     10  C8   11 d         -13.439 207.488 113.179  0.00  0.00     0.000 A 
ATOM     11  C9   11 d         -12.921 206.212 113.449  0.00  0.00     0.002 A 
ATOM     12  C10  11 d         -12.315 205.948 114.686  0.00  0.00     0.030 A 
ATOM     13  S2   11 d          -9.609 205.990 120.587  0.00  0.00    -0.073 SA
ATOM     14  C11  11 d          -8.448 206.913 120.325  0.00  0.00    -0.004 A 
ATOM     15  C12  11 d          -8.597 207.486 119.057  0.00  0.00    -0.025 A 
ATOM     16  C13  11 d          -7.687 208.577 118.552  0.00  0.00     0.049 C 
ATOM     17  C14  11 d          -6.884 209.262 119.696  0.00  0.00    -0.043 C 
ATOM     18  C15  11 d          -6.265 208.165 120.613  0.00  0.00     0.018 C 
ATOM     19  C16  11 d          -7.298 207.207 121.265  0.00  0.00     0.023 C 
ATOM     20  C17  11 d          -6.612 205.927 121.765  0.00  0.00     0.015 C 
ATOM     21  C18  11 d          -7.795 210.214 120.507  0.00  0.00     0.015 C 
ATOM     22  C19  11 d          -5.746 210.104 119.079  0.00  0.00     0.015 C 
ATOM     23  O1   11 d          -9.853 208.099 116.444  0.00  0.00    -0.267 OA
ENDROOT
BRANCH   5  24
ATOM     24  S1   11 d         -13.771 204.992 117.523  0.00  0.00    -0.104 SA
ATOM     25  H6   11 d         -13.898 204.625 118.898  0.00  0.00     0.110 HD
ENDBRANCH   5  24
TORSDOF 1
ENDMDL
MODEL 12
REMARK VINA RESULT:      -6.9      2.778      3.448
REMARK  1 active torsions:
REMARK  status: ('A' for Active; 'I' for Inactive)
REMARK    1  A    between atoms: C4_5  and  S1_13 
ROOT
ATOM      1  C1   11 d          -8.816 207.962 117.207  0.00  0.00     0.268 A 
ATOM      2  C2   11 d         -10.000 207.408 117.715  0.00  0.00     0.076 A 
ATOM      3  C3   11 d          -9.931 206.659 118.871  0.00  0.00     0.117 A 
ATOM      4  N1   11 d          -8.768 206.436 119.525  0.00  0.00    -0.216 NA
ATOM      5  C4   11 d          -7.613 206.973 119.033  0.00  0.00     0.174 A 
ATOM      6  N2   11 d          -7.627 207.742 117.880  0.00  0.00    -0.257 N 
ATOM      7  C5   11 d          -6.405 208.324 117.378  0.00  0.00     0.044 A 
ATOM      8  C6   11 d          -5.865 207.892 116.150  0.00  0.00     0.030 A 
ATOM      9  C7   11 d          -4.679 208.461 115.660  0.00  0.00     0.002 A 
ATOM     10  C8   11 d          -4.027 209.465 116.391  0.00  0.00     0.000 A 
ATOM     11  C9   11 d          -4.562 209.904 117.612  0.00  0.00     0.002 A 
ATOM     12  C10  11 d          -5.748 209.337 118.102  0.00  0.00     0.030 A 
ATOM     13  S2   11 d         -11.295 206.157 119.225  0.00  0.00    -0.073 SA
ATOM     14  C11  11 d         -12.141 206.729 118.118  0.00  0.00    -0.004 A 
ATOM     15  C12  11 d         -11.327 207.479 117.262  0.00  0.00    -0.025 A 
ATOM     16  C13  11 d         -11.836 208.057 115.965  0.00  0.00     0.049 C 
ATOM     17  C14  11 d         -13.165 207.396 115.498  0.00  0.00    -0.043 C 
ATOM     18  C15  11 d         -14.153 207.329 116.702  0.00  0.00     0.018 C 
ATOM     19  C16  11 d         -13.630 206.531 117.926  0.00  0.00     0.023 C 
ATOM     20  C17  11 d         -14.433 206.882 119.188  0.00  0.00     0.015 C 
ATOM     21  C18  11 d         -12.899 205.986 114.920  0.00  0.00     0.015 C 
ATOM     22  C19  11 d         -13.791 208.258 114.380  0.00  0.00     0.015 C 
ATOM     23  O1   11 d          -8.845 208.673 116.168  0.00  0.00    -0.267 OA
ENDROOT
BRANCH   5  24
ATOM     24  S1   11 d          -6.098 206.588 119.947  0.00  0.00    -0.104 SA
ATOM     25  H6   11 d          -5.738 205.577 119.006  0.00  0.00     0.110 HD
ENDBRANCH   5  24
TORSDOF 1
ENDMDL
MODEL 13
REMARK VINA RESULT:      -6.6      6.459     10.115
REMARK  1 active torsions:
REMARK  status: ('A' for Active; 'I' for Inactive)
REMARK    1  A    between atoms: C4_5  and  S1_13 
ROOT
ATOM      1  C1   11 d         -14.758 205.961 120.180  0.00  0.00     0.268 A 
ATOM      2  C2   11 d         -14.165 205.626 118.954  0.00  0.00     0.076 A 
ATOM      3  C3   11 d         -14.563 204.462 118.329  0.00  0.00     0.117 A 
ATOM      4  N1   11 d         -15.495 203.635 118.855  0.00  0.00    -0.216 NA
ATOM      5  C4   11 d         -16.074 203.959 120.049  0.00  0.00     0.174 A 
ATOM      6  N2   11 d         -15.718 205.121 120.715  0.00  0.00    -0.257 N 
ATOM      7  C5   11 d         -16.350 205.466 121.966  0.00  0.00     0.044 A 
ATOM      8  C6   11 d         -15.602 205.478 123.160  0.00  0.00     0.030 A 
ATOM      9  C7   11 d         -16.216 205.818 124.376  0.00  0.00     0.002 A 
ATOM     10  C8   11 d         -17.578 206.150 124.407  0.00  0.00     0.000 A 
ATOM     11  C9   11 d         -18.328 206.145 123.220  0.00  0.00     0.002 A 
ATOM     12  C10  11 d         -17.716 205.807 122.004  0.00  0.00     0.030 A 
ATOM     13  S2   11 d         -13.800 204.292 117.053  0.00  0.00    -0.073 SA
ATOM     14  C11  11 d         -12.925 205.518 117.040  0.00  0.00    -0.004 A 
ATOM     15  C12  11 d         -13.196 206.284 118.179  0.00  0.00    -0.025 A 
ATOM     16  C13  11 d         -12.379 207.497 118.550  0.00  0.00     0.049 C 
ATOM     17  C14  11 d         -11.011 207.544 117.810  0.00  0.00    -0.043 C 
ATOM     18  C15  11 d         -11.239 207.255 116.296  0.00  0.00     0.018 C 
ATOM     19  C16  11 d         -11.898 205.884 115.990  0.00  0.00     0.023 C 
ATOM     20  C17  11 d         -12.485 205.867 114.570  0.00  0.00     0.015 C 
ATOM     21  C18  11 d         -10.023 206.525 118.426  0.00  0.00     0.015 C 
ATOM     22  C19  11 d         -10.400 208.954 117.968  0.00  0.00     0.015 C 
ATOM     23  O1   11 d         -14.438 207.029 120.766  0.00  0.00    -0.267 OA
ENDROOT
BRANCH   5  24
ATOM     24  S1   11 d         -17.280 202.775 120.700  0.00  0.00    -0.104 SA
ATOM     25  H6   11 d         -18.087 203.827 121.231  0.00  0.00     0.110 HD
ENDBRANCH   5  24
TORSDOF 1
ENDMDL
MODEL 14
REMARK VINA RESULT:      -6.3      5.294      7.690
REMARK  1 active torsions:
REMARK  status: ('A' for Active; 'I' for Inactive)
REMARK    1  A    between atoms: C4_5  and  S1_13 
ROOT
ATOM      1  C1   11 d         -11.163 206.535 118.166  0.00  0.00     0.268 A 
ATOM      2  C2   11 d         -11.804 206.039 119.310  0.00  0.00     0.076 A 
ATOM      3  C3   11 d         -13.182 206.082 119.361  0.00  0.00     0.117 A 
ATOM      4  N1   11 d         -13.932 206.587 118.353  0.00  0.00    -0.216 NA
ATOM      5  C4   11 d         -13.310 207.070 117.238  0.00  0.00     0.174 A 
ATOM      6  N2   11 d         -11.929 207.043 117.132  0.00  0.00    -0.257 N 
ATOM      7  C5   11 d         -11.280 207.537 115.940  0.00  0.00     0.044 A 
ATOM      8  C6   11 d         -10.474 208.691 115.997  0.00  0.00     0.030 A 
ATOM      9  C7   11 d          -9.839 209.169 114.840  0.00  0.00     0.002 A 
ATOM     10  C8   11 d         -10.004 208.496 113.620  0.00  0.00     0.000 A 
ATOM     11  C9   11 d         -10.801 207.343 113.557  0.00  0.00     0.002 A 
ATOM     12  C10  11 d         -11.435 206.864 114.713  0.00  0.00     0.030 A 
ATOM     13  S2   11 d         -13.654 205.520 120.664  0.00  0.00    -0.073 SA
ATOM     14  C11  11 d         -12.359 205.150 121.338  0.00  0.00    -0.004 A 
ATOM     15  C12  11 d         -11.295 205.459 120.484  0.00  0.00    -0.025 A 
ATOM     16  C13  11 d          -9.855 205.357 120.918  0.00  0.00     0.049 C 
ATOM     17  C14  11 d          -9.701 205.296 122.466  0.00  0.00    -0.043 C 
ATOM     18  C15  11 d         -10.709 204.255 123.038  0.00  0.00     0.018 C 
ATOM     19  C16  11 d         -12.199 204.552 122.719  0.00  0.00     0.023 C 
ATOM     20  C17  11 d         -13.059 203.294 122.914  0.00  0.00     0.015 C 
ATOM     21  C18  11 d          -9.930 206.692 123.092  0.00  0.00     0.015 C 
ATOM     22  C19  11 d          -8.264 204.849 122.813  0.00  0.00     0.015 C 
ATOM     23  O1   11 d          -9.908 206.487 118.075  0.00  0.00    -0.267 OA
ENDROOT
BRANCH   5  24
ATOM     24  S1   11 d         -14.387 207.766 115.959  0.00  0.00    -0.104 SA
ATOM     25  H6   11 d         -15.546 207.189 116.563  0.00  0.00     0.110 HD
ENDBRANCH   5  24
TORSDOF 1
ENDMDL
MODEL 15
REMARK VINA RESULT:      -6.3      6.055      7.821
REMARK  1 active torsions:
REMARK  status: ('A' for Active; 'I' for Inactive)
REMARK    1  A    between atoms: C4_5  and  S1_13 
ROOT
ATOM      1  C1   11 d         -13.122 206.049 118.877  0.00  0.00     0.268 A 
ATOM      2  C2   11 d         -13.387 205.566 120.166  0.00  0.00     0.076 A 
ATOM      3  C3   11 d         -12.327 205.383 121.030  0.00  0.00     0.117 A 
ATOM      4  N1   11 d         -11.047 205.648 120.677  0.00  0.00    -0.216 NA
ATOM      5  C4   11 d         -10.786 206.118 119.423  0.00  0.00     0.174 A 
ATOM      6  N2   11 d         -11.815 206.328 118.518  0.00  0.00    -0.257 N 
ATOM      7  C5   11 d         -11.532 206.846 117.200  0.00  0.00     0.044 A 
ATOM      8  C6   11 d         -11.742 206.042 116.062  0.00  0.00     0.030 A 
ATOM      9  C7   11 d         -11.471 206.547 114.780  0.00  0.00     0.002 A 
ATOM     10  C8   11 d         -10.992 207.856 114.628  0.00  0.00     0.000 A 
ATOM     11  C9   11 d         -10.786 208.664 115.757  0.00  0.00     0.002 A 
ATOM     12  C10  11 d         -11.057 208.161 117.038  0.00  0.00     0.030 A 
ATOM     13  S2   11 d         -12.829 204.853 122.335  0.00  0.00    -0.073 SA
ATOM     14  C11  11 d         -14.313 204.768 122.094  0.00  0.00    -0.004 A 
ATOM     15  C12  11 d         -14.592 205.221 120.800  0.00  0.00    -0.025 A 
ATOM     16  C13  11 d         -15.966 205.119 120.187  0.00  0.00     0.049 C 
ATOM     17  C14  11 d         -16.883 204.113 120.942  0.00  0.00    -0.043 C 
ATOM     18  C15  11 d         -16.788 204.386 122.473  0.00  0.00     0.018 C 
ATOM     19  C16  11 d         -15.359 204.263 123.066  0.00  0.00     0.023 C 
ATOM     20  C17  11 d         -15.273 204.964 124.430  0.00  0.00     0.015 C 
ATOM     21  C18  11 d         -16.482 202.656 120.612  0.00  0.00     0.015 C 
ATOM     22  C19  11 d         -18.344 204.319 120.483  0.00  0.00     0.015 C 
ATOM     23  O1   11 d         -14.068 206.253 118.071  0.00  0.00    -0.267 OA
ENDROOT
BRANCH   5  24
ATOM     24  S1   11 d          -9.043 206.403 119.022  0.00  0.00    -0.104 SA
ATOM     25  H6   11 d          -8.628 205.355 119.898  0.00  0.00     0.110 HD
ENDBRANCH   5  24
TORSDOF 1
ENDMDL
MODEL 16
REMARK VINA RESULT:      -6.3     13.926     17.722
REMARK  1 active torsions:
REMARK  status: ('A' for Active; 'I' for Inactive)
REMARK    1  A    between atoms: C4_5  and  S1_13 
ROOT
ATOM      1  C1   11 d         -21.866 200.335 122.787  0.00  0.00     0.268 A 
ATOM      2  C2   11 d         -21.310 201.542 123.233  0.00  0.00     0.076 A 
ATOM      3  C3   11 d         -21.692 202.024 124.468  0.00  0.00     0.117 A 
ATOM      4  N1   11 d         -22.584 201.381 125.256  0.00  0.00    -0.216 NA
ATOM      5  C4   11 d         -23.128 200.206 124.824  0.00  0.00     0.174 A 
ATOM      6  N2   11 d         -22.772 199.671 123.596  0.00  0.00    -0.257 N 
ATOM      7  C5   11 d         -23.336 198.417 123.155  0.00  0.00     0.044 A 
ATOM      8  C6   11 d         -24.202 198.380 122.044  0.00  0.00     0.030 A 
ATOM      9  C7   11 d         -24.747 197.160 121.613  0.00  0.00     0.002 A 
ATOM     10  C8   11 d         -24.429 195.972 122.287  0.00  0.00     0.000 A 
ATOM     11  C9   11 d         -23.563 196.001 123.391  0.00  0.00     0.002 A 
ATOM     12  C10  11 d         -23.017 197.219 123.822  0.00  0.00     0.030 A 
ATOM     13  S2   11 d         -20.994 203.319 124.739  0.00  0.00    -0.073 SA
ATOM     14  C11  11 d         -20.162 203.498 123.496  0.00  0.00    -0.004 A 
ATOM     15  C12  11 d         -20.371 202.406 122.646  0.00  0.00    -0.025 A 
ATOM     16  C13  11 d         -19.808 202.352 121.248  0.00  0.00     0.049 C 
ATOM     17  C14  11 d         -19.365 203.751 120.729  0.00  0.00    -0.043 C 
ATOM     18  C15  11 d         -18.517 204.458 121.827  0.00  0.00     0.018 C 
ATOM     19  C16  11 d         -19.250 204.664 123.180  0.00  0.00     0.023 C 
ATOM     20  C17  11 d         -18.244 204.940 124.308  0.00  0.00     0.015 C 
ATOM     21  C18  11 d         -20.597 204.604 120.343  0.00  0.00     0.015 C 
ATOM     22  C19  11 d         -18.499 203.567 119.463  0.00  0.00     0.015 C 
ATOM     23  O1   11 d         -21.520 199.852 121.677  0.00  0.00    -0.267 OA
ENDROOT
BRANCH   5  24
ATOM     24  S1   11 d         -24.345 199.435 125.922  0.00  0.00    -0.104 SA
ATOM     25  H6   11 d         -25.167 199.060 124.816  0.00  0.00     0.110 HD
ENDBRANCH   5  24
TORSDOF 1
ENDMDL
MODEL 17
REMARK VINA RESULT:      -6.3      3.745      7.628
REMARK  1 active torsions:
REMARK  status: ('A' for Active; 'I' for Inactive)
REMARK    1  A    between atoms: C4_5  and  S1_13 
ROOT
ATOM      1  C1   11 d         -10.033 207.344 117.330  0.00  0.00     0.268 A 
ATOM      2  C2   11 d          -8.830 207.621 117.993  0.00  0.00     0.076 A 
ATOM      3  C3   11 d          -7.871 208.362 117.332  0.00  0.00     0.117 A 
ATOM      4  N1   11 d          -8.050 208.824 116.072  0.00  0.00    -0.216 NA
ATOM      5  C4   11 d          -9.221 208.555 115.424  0.00  0.00     0.174 A 
ATOM      6  N2   11 d         -10.220 207.823 116.046  0.00  0.00    -0.257 N 
ATOM      7  C5   11 d         -11.464 207.561 115.361  0.00  0.00     0.044 A 
ATOM      8  C6   11 d         -11.807 206.246 114.990  0.00  0.00     0.030 A 
ATOM      9  C7   11 d         -13.019 205.990 114.328  0.00  0.00     0.002 A 
ATOM     10  C8   11 d         -13.895 207.046 114.035  0.00  0.00     0.000 A 
ATOM     11  C9   11 d         -13.562 208.358 114.406  0.00  0.00     0.002 A 
ATOM     12  C10  11 d         -12.352 208.614 115.069  0.00  0.00     0.030 A 
ATOM     13  S2   11 d          -6.671 208.528 118.209  0.00  0.00    -0.073 SA
ATOM     14  C11  11 d          -7.084 207.787 119.455  0.00  0.00    -0.004 A 
ATOM     15  C12  11 d          -8.379 207.287 119.281  0.00  0.00    -0.025 A 
ATOM     16  C13  11 d          -9.029 206.363 120.280  0.00  0.00     0.049 C 
ATOM     17  C14  11 d          -7.999 205.714 121.250  0.00  0.00    -0.043 C 
ATOM     18  C15  11 d          -7.044 206.818 121.794  0.00  0.00     0.018 C 
ATOM     19  C16  11 d          -6.250 207.584 120.702  0.00  0.00     0.023 C 
ATOM     20  C17  11 d          -5.700 208.907 121.257  0.00  0.00     0.015 C 
ATOM     21  C18  11 d          -7.205 204.596 120.533  0.00  0.00     0.015 C 
ATOM     22  C19  11 d          -8.757 205.074 122.434  0.00  0.00     0.015 C 
ATOM     23  O1   11 d         -10.940 206.693 117.913  0.00  0.00    -0.267 OA
ENDROOT
BRANCH   5  24
ATOM     24  S1   11 d          -9.357 209.173 113.728  0.00  0.00    -0.104 SA
ATOM     25  H6   11 d          -9.889 207.929 113.273  0.00  0.00     0.110 HD
ENDBRANCH   5  24
TORSDOF 1
ENDMDL
MODEL 18
REMARK VINA RESULT:      -6.2      3.320      6.204
REMARK  1 active torsions:
REMARK  status: ('A' for Active; 'I' for Inactive)
REMARK    1  A    between atoms: C4_5  and  S1_13 
ROOT
ATOM      1  C1   11 d          -7.065 208.707 117.157  0.00  0.00     0.268 A 
ATOM      2  C2   11 d          -6.519 208.853 115.874  0.00  0.00     0.076 A 
ATOM      3  C3   11 d          -5.232 209.337 115.760  0.00  0.00     0.117 A 
ATOM      4  N1   11 d          -4.484 209.677 116.836  0.00  0.00    -0.216 NA
ATOM      5  C4   11 d          -5.014 209.536 118.086  0.00  0.00     0.174 A 
ATOM      6  N2   11 d          -6.299 209.046 118.258  0.00  0.00    -0.257 N 
ATOM      7  C5   11 d          -6.844 208.879 119.585  0.00  0.00     0.044 A 
ATOM      8  C6   11 d          -7.926 209.674 120.013  0.00  0.00     0.030 A 
ATOM      9  C7   11 d          -8.458 209.509 121.301  0.00  0.00     0.002 A 
ATOM     10  C8   11 d          -7.915 208.549 122.168  0.00  0.00     0.000 A 
ATOM     11  C9   11 d          -6.840 207.751 121.747  0.00  0.00     0.002 A 
ATOM     12  C10  11 d          -6.308 207.914 120.459  0.00  0.00     0.030 A 
ATOM     13  S2   11 d          -4.856 209.426 114.315  0.00  0.00    -0.073 SA
ATOM     14  C11  11 d          -6.100 208.922 113.631  0.00  0.00    -0.004 A 
ATOM     15  C12  11 d          -7.047 208.578 114.602  0.00  0.00    -0.025 A 
ATOM     16  C13  11 d          -8.460 208.186 114.249  0.00  0.00     0.049 C 
ATOM     17  C14  11 d          -8.852 208.608 112.803  0.00  0.00    -0.043 C 
ATOM     18  C15  11 d          -7.715 208.190 111.823  0.00  0.00     0.018 C 
ATOM     19  C16  11 d          -6.327 208.809 112.139  0.00  0.00     0.023 C 
ATOM     20  C17  11 d          -5.209 208.025 111.436  0.00  0.00     0.015 C 
ATOM     21  C18  11 d          -9.114 210.131 112.732  0.00  0.00     0.015 C 
ATOM     22  C19  11 d         -10.155 207.882 112.402  0.00  0.00     0.015 C 
ATOM     23  O1   11 d          -8.228 208.244 117.300  0.00  0.00    -0.267 OA
ENDROOT
BRANCH   5  24
ATOM     24  S1   11 d          -3.960 210.055 119.464  0.00  0.00    -0.104 SA
ATOM     25  H6   11 d          -4.397 208.957 120.266  0.00  0.00     0.110 HD
ENDBRANCH   5  24
TORSDOF 1
ENDMDL
MODEL 19
REMARK VINA RESULT:      -6.0     13.387     17.312
REMARK  1 active torsions:
REMARK  status: ('A' for Active; 'I' for Inactive)
REMARK    1  A    between atoms: C4_5  and  S1_13 
ROOT
ATOM      1  C1   11 d         -21.625 202.297 124.234  0.00  0.00     0.268 A 
ATOM      2  C2   11 d         -20.451 203.006 123.941  0.00  0.00     0.076 A 
ATOM      3  C3   11 d         -19.754 203.580 124.984  0.00  0.00     0.117 A 
ATOM      4  N1   11 d         -20.163 203.488 126.271  0.00  0.00    -0.216 NA
ATOM      5  C4   11 d         -21.305 202.799 126.559  0.00  0.00     0.174 A 
ATOM      6  N2   11 d         -22.039 202.195 125.550  0.00  0.00    -0.257 N 
ATOM      7  C5   11 d         -23.236 201.450 125.865  0.00  0.00     0.044 A 
ATOM      8  C6   11 d         -24.495 201.915 125.437  0.00  0.00     0.030 A 
ATOM      9  C7   11 d         -25.657 201.189 125.739  0.00  0.00     0.002 A 
ATOM     10  C8   11 d         -25.569 199.994 126.469  0.00  0.00     0.000 A 
ATOM     11  C9   11 d         -24.317 199.522 126.894  0.00  0.00     0.002 A 
ATOM     12  C10  11 d         -23.155 200.246 126.591  0.00  0.00     0.030 A 
ATOM     13  S2   11 d         -18.552 204.293 124.452  0.00  0.00    -0.073 SA
ATOM     14  C11  11 d         -18.661 204.039 122.971  0.00  0.00    -0.004 A 
ATOM     15  C12  11 d         -19.794 203.254 122.725  0.00  0.00    -0.025 A 
ATOM     16  C13  11 d         -20.279 202.951 121.330  0.00  0.00     0.049 C 
ATOM     17  C14  11 d         -19.674 203.913 120.266  0.00  0.00    -0.043 C 
ATOM     18  C15  11 d         -18.137 204.024 120.493  0.00  0.00     0.018 C 
ATOM     19  C16  11 d         -17.725 204.548 121.896  0.00  0.00     0.023 C 
ATOM     20  C17  11 d         -16.256 204.209 122.193  0.00  0.00     0.015 C 
ATOM     21  C18  11 d         -20.348 205.303 120.342  0.00  0.00     0.015 C 
ATOM     22  C19  11 d         -19.935 203.335 118.857  0.00  0.00     0.015 C 
ATOM     23  O1   11 d         -22.273 201.739 123.309  0.00  0.00    -0.267 OA
ENDROOT
BRANCH   5  24
ATOM     24  S1   11 d         -21.801 202.763 128.300  0.00  0.00    -0.104 SA
ATOM     25  H6   11 d         -20.458 202.519 128.720  0.00  0.00     0.110 HD
ENDBRANCH   5  24
TORSDOF 1
ENDMDL
MODEL 20
REMARK VINA RESULT:      -6.0      4.746      7.834
REMARK  1 active torsions:
REMARK  status: ('A' for Active; 'I' for Inactive)
REMARK    1  A    between atoms: C4_5  and  S1_13 
ROOT
ATOM      1  C1   11 d          -5.406 206.308 117.673  0.00  0.00     0.268 A 
ATOM      2  C2   11 d          -4.815 206.785 116.494  0.00  0.00     0.076 A 
ATOM      3  C3   11 d          -3.487 206.492 116.260  0.00  0.00     0.117 A 
ATOM      4  N1   11 d          -2.738 205.769 117.125  0.00  0.00    -0.216 NA
ATOM      5  C4   11 d          -3.310 205.304 118.274  0.00  0.00     0.174 A 
ATOM      6  N2   11 d          -4.643 205.562 118.554  0.00  0.00    -0.257 N 
ATOM      7  C5   11 d          -5.246 205.048 119.761  0.00  0.00     0.044 A 
ATOM      8  C6   11 d          -5.670 205.931 120.774  0.00  0.00     0.030 A 
ATOM      9  C7   11 d          -6.260 205.432 121.946  0.00  0.00     0.002 A 
ATOM     10  C8   11 d          -6.433 204.050 122.112  0.00  0.00     0.000 A 
ATOM     11  C9   11 d          -6.019 203.165 121.105  0.00  0.00     0.002 A 
ATOM     12  C10  11 d          -5.429 203.663 119.933  0.00  0.00     0.030 A 
ATOM     13  S2   11 d          -3.059 207.103 114.964  0.00  0.00    -0.073 SA
ATOM     14  C11  11 d          -4.324 207.774 114.496  0.00  0.00    -0.004 A 
ATOM     15  C12  11 d          -5.339 207.537 115.430  0.00  0.00    -0.025 A 
ATOM     16  C13  11 d          -6.690 208.201 115.341  0.00  0.00     0.049 C 
ATOM     17  C14  11 d          -6.684 209.441 114.401  0.00  0.00    -0.043 C 
ATOM     18  C15  11 d          -5.967 209.070 113.069  0.00  0.00     0.018 C 
ATOM     19  C16  11 d          -4.499 208.592 113.235  0.00  0.00     0.023 C 
ATOM     20  C17  11 d          -4.027 207.839 111.981  0.00  0.00     0.015 C 
ATOM     21  C18  11 d          -5.991 210.642 115.088  0.00  0.00     0.015 C 
ATOM     22  C19  11 d          -8.142 209.847 114.092  0.00  0.00     0.015 C 
ATOM     23  O1   11 d          -6.622 206.534 117.907  0.00  0.00    -0.267 OA
ENDROOT
BRANCH   5  24
ATOM     24  S1   11 d          -2.224 204.384 119.393  0.00  0.00    -0.104 SA
ATOM     25  H6   11 d          -2.624 205.186 120.506  0.00  0.00     0.110 HD
ENDBRANCH   5  24
TORSDOF 1
ENDMDL
