MODEL 1
REMARK VINA RESULT:      -8.8      0.000      0.000
REMARK  3 active torsions:
REMARK  status: ('A' for Active; 'I' for Inactive)
REMARK    1  A    between atoms: C9_12  and  C11_14 
REMARK    2  A    between atoms: C11_14  and  S1_15 
REMARK    3  A    between atoms: S1_15  and  C12_16 
ROOT
ATOM      1  C1   11 d         -12.239 207.616 113.988  0.00  0.00     0.268 A 
ATOM      2  N1   11 d         -12.943 207.204 112.891  0.00  0.00    -0.107 N 
ATOM      3  C2   11 d         -12.393 207.215 111.656  0.00  0.00     0.715 A 
ATOM      4  N2   11 d         -13.286 206.782 110.744  0.00  0.00    -0.187 N 
ATOM      5  C3   11 d         -14.414 206.482 111.419  0.00  0.00     0.077 A 
ATOM      6  C4   11 d         -14.210 206.743 112.767  0.00  0.00     0.087 A 
ATOM      7  C5   11 d         -15.222 206.513 113.712  0.00  0.00     0.033 A 
ATOM      8  C6   11 d         -16.457 206.008 113.253  0.00  0.00     0.002 A 
ATOM      9  C7   11 d         -16.661 205.745 111.878  0.00  0.00     0.002 A 
ATOM     10  C8   11 d         -15.632 205.983 110.943  0.00  0.00     0.032 A 
ATOM     11  N3   11 d         -11.114 207.614 111.447  0.00  0.00    -0.068 NA
ATOM     12  C9   11 d         -10.343 207.989 112.517  0.00  0.00     0.068 A 
ATOM     13  C10  11 d         -10.911 208.035 113.810  0.00  0.00     0.104 A 
ATOM     14  O1   11 d         -12.756 207.630 115.133  0.00  0.00    -0.267 OA
ATOM     15  H1   11 d         -13.125 206.694 109.712  0.00  0.00     0.184 HD
ENDROOT
BRANCH  12  16
ATOM     16  C11  11 d          -8.953 208.496 112.272  0.00  0.00     0.139 C 
BRANCH  16  17
ATOM     17  S1   11 d          -8.475 209.573 113.680  0.00  0.00    -0.124 SA
BRANCH  17  18
ATOM     18  C12  11 d          -6.698 209.280 113.499  0.00  0.00     0.001 A 
ATOM     19  C13  11 d          -6.231 208.375 112.533  0.00  0.00     0.019 A 
ATOM     20  C14  11 d          -4.853 208.170 112.369  0.00  0.00     0.008 A 
ATOM     21  C15  11 d          -3.927 208.890 113.150  0.00  0.00    -0.062 A 
ATOM     22  C16  11 d          -4.405 209.764 114.147  0.00  0.00     0.008 A 
ATOM     23  C18  11 d          -2.455 208.608 113.034  0.00  0.00     0.048 C 
ATOM     24  C17  11 d          -5.783 209.969 114.309  0.00  0.00     0.019 A 
ENDBRANCH  17  18
ENDBRANCH  16  17
ENDBRANCH  12  16
TORSDOF 3
ENDMDL
MODEL 2
REMARK VINA RESULT:      -8.8      1.866      2.441
REMARK  3 active torsions:
REMARK  status: ('A' for Active; 'I' for Inactive)
REMARK    1  A    between atoms: C9_12  and  C11_14 
REMARK    2  A    between atoms: C11_14  and  S1_15 
REMARK    3  A    between atoms: S1_15  and  C12_16 
ROOT
ATOM      1  C1   11 d         -11.284 207.724 110.492  0.00  0.00     0.268 A 
ATOM      2  N1   11 d         -12.072 207.243 111.499  0.00  0.00    -0.107 N 
ATOM      3  C2   11 d         -11.648 207.236 112.783  0.00  0.00     0.715 A 
ATOM      4  N2   11 d         -12.591 206.701 113.583  0.00  0.00    -0.187 N 
ATOM      5  C3   11 d         -13.633 206.377 112.790  0.00  0.00     0.077 A 
ATOM      6  C4   11 d         -13.317 206.714 111.480  0.00  0.00     0.087 A 
ATOM      7  C5   11 d         -14.228 206.492 110.436  0.00  0.00     0.033 A 
ATOM      8  C6   11 d         -15.476 205.917 110.753  0.00  0.00     0.002 A 
ATOM      9  C7   11 d         -15.793 205.576 112.089  0.00  0.00     0.002 A 
ATOM     10  C8   11 d         -14.865 205.804 113.126  0.00  0.00     0.032 A 
ATOM     11  N3   11 d         -10.432 207.722 113.136  0.00  0.00    -0.068 NA
ATOM     12  C9   11 d          -9.619 208.264 112.175  0.00  0.00     0.068 A 
ATOM     13  C10  11 d         -10.018 208.236 110.820  0.00  0.00     0.104 A 
ATOM     14  O1   11 d         -11.666 207.709 109.295  0.00  0.00    -0.267 OA
ATOM     15  H1   11 d         -12.523 206.571 114.620  0.00  0.00     0.184 HD
ENDROOT
BRANCH  12  16
ATOM     16  C11  11 d          -8.248 208.736 112.560  0.00  0.00     0.139 C 
BRANCH  16  17
ATOM     17  S1   11 d          -8.380 209.680 114.128  0.00  0.00    -0.124 SA
BRANCH  17  18
ATOM     18  C12  11 d          -6.725 209.238 114.712  0.00  0.00     0.001 A 
ATOM     19  C13  11 d          -6.045 208.153 114.137  0.00  0.00     0.019 A 
ATOM     20  C14  11 d          -4.749 207.828 114.567  0.00  0.00     0.008 A 
ATOM     21  C15  11 d          -4.110 208.604 115.553  0.00  0.00    -0.062 A 
ATOM     22  C16  11 d          -4.816 209.664 116.156  0.00  0.00     0.008 A 
ATOM     23  C18  11 d          -2.756 208.204 116.073  0.00  0.00     0.048 C 
ATOM     24  C17  11 d          -6.111 209.989 115.725  0.00  0.00     0.019 A 
ENDBRANCH  17  18
ENDBRANCH  16  17
ENDBRANCH  12  16
TORSDOF 3
ENDMDL
MODEL 3
REMARK VINA RESULT:      -8.7      1.616      2.244
REMARK  3 active torsions:
REMARK  status: ('A' for Active; 'I' for Inactive)
REMARK    1  A    between atoms: C9_12  and  C11_14 
REMARK    2  A    between atoms: C11_14  and  S1_15 
REMARK    3  A    between atoms: S1_15  and  C12_16 
ROOT
ATOM      1  C1   11 d         -11.156 207.727 114.017  0.00  0.00     0.268 A 
ATOM      2  N1   11 d         -11.767 207.299 112.873  0.00  0.00    -0.107 N 
ATOM      3  C2   11 d         -11.255 207.579 111.653  0.00  0.00     0.715 A 
ATOM      4  N2   11 d         -12.042 207.065 110.687  0.00  0.00    -0.187 N 
ATOM      5  C3   11 d         -13.062 206.440 111.310  0.00  0.00     0.077 A 
ATOM      6  C4   11 d         -12.898 206.580 112.682  0.00  0.00     0.087 A 
ATOM      7  C5   11 d         -13.817 206.018 113.582  0.00  0.00     0.033 A 
ATOM      8  C6   11 d         -14.913 205.304 113.054  0.00  0.00     0.002 A 
ATOM      9  C7   11 d         -15.075 205.164 111.656  0.00  0.00     0.002 A 
ATOM     10  C8   11 d         -14.143 205.737 110.767  0.00  0.00     0.032 A 
ATOM     11  N3   11 d         -10.103 208.279 111.506  0.00  0.00    -0.068 NA
ATOM     12  C9   11 d          -9.419 208.691 112.620  0.00  0.00     0.068 A 
ATOM     13  C10  11 d          -9.960 208.455 113.904  0.00  0.00     0.104 A 
ATOM     14  O1   11 d         -11.644 207.490 115.151  0.00  0.00    -0.267 OA
ATOM     15  H1   11 d         -11.882 207.137 109.654  0.00  0.00     0.184 HD
ENDROOT
BRANCH  12  16
ATOM     16  C11  11 d          -8.183 209.525 112.452  0.00  0.00     0.139 C 
BRANCH  16  17
ATOM     17  S1   11 d          -6.730 208.405 112.421  0.00  0.00    -0.124 SA
BRANCH  17  18
ATOM     18  C12  11 d          -6.121 208.901 114.051  0.00  0.00     0.001 A 
ATOM     19  C13  11 d          -6.323 210.213 114.506  0.00  0.00     0.019 A 
ATOM     20  C14  11 d          -5.879 210.592 115.782  0.00  0.00     0.008 A 
ATOM     21  C15  11 d          -5.256 209.653 116.628  0.00  0.00    -0.062 A 
ATOM     22  C16  11 d          -5.018 208.350 116.147  0.00  0.00     0.008 A 
ATOM     23  C18  11 d          -4.706 210.080 117.960  0.00  0.00     0.048 C 
ATOM     24  C17  11 d          -5.463 207.972 114.871  0.00  0.00     0.019 A 
ENDBRANCH  17  18
ENDBRANCH  16  17
ENDBRANCH  12  16
TORSDOF 3
ENDMDL
MODEL 4
REMARK VINA RESULT:      -8.7      5.444      9.052
REMARK  3 active torsions:
REMARK  status: ('A' for Active; 'I' for Inactive)
REMARK    1  A    between atoms: C9_12  and  C11_14 
REMARK    2  A    between atoms: C11_14  and  S1_15 
REMARK    3  A    between atoms: S1_15  and  C12_16 
ROOT
ATOM      1  C1   11 d         -12.603 205.985 114.205  0.00  0.00     0.268 A 
ATOM      2  N1   11 d         -13.794 206.093 113.546  0.00  0.00    -0.107 N 
ATOM      3  C2   11 d         -14.968 205.834 114.165  0.00  0.00     0.715 A 
ATOM      4  N2   11 d         -15.994 205.993 113.306  0.00  0.00    -0.187 N 
ATOM      5  C3   11 d         -15.458 206.371 112.128  0.00  0.00     0.077 A 
ATOM      6  C4   11 d         -14.078 206.438 112.268  0.00  0.00     0.087 A 
ATOM      7  C5   11 d         -13.258 206.816 111.194  0.00  0.00     0.033 A 
ATOM      8  C6   11 d         -13.875 207.129 109.965  0.00  0.00     0.002 A 
ATOM      9  C7   11 d         -15.281 207.059 109.827  0.00  0.00     0.002 A 
ATOM     10  C8   11 d         -16.089 206.676 110.917  0.00  0.00     0.032 A 
ATOM     11  N3   11 d         -15.022 205.474 115.472  0.00  0.00    -0.068 NA
ATOM     12  C9   11 d         -13.862 205.400 116.198  0.00  0.00     0.068 A 
ATOM     13  C10  11 d         -12.620 205.616 115.560  0.00  0.00     0.104 A 
ATOM     14  O1   11 d         -11.509 206.202 113.625  0.00  0.00    -0.267 OA
ATOM     15  H1   11 d         -17.010 205.853 113.521  0.00  0.00     0.184 HD
ENDROOT
BRANCH  12  16
ATOM     16  C11  11 d         -13.921 204.934 117.622  0.00  0.00     0.139 C 
BRANCH  16  17
ATOM     17  S1   11 d         -14.831 203.340 117.672  0.00  0.00    -0.124 SA
BRANCH  17  18
ATOM     18  C12  11 d         -15.591 203.650 119.284  0.00  0.00     0.001 A 
ATOM     19  C13  11 d         -15.019 204.583 120.163  0.00  0.00     0.019 A 
ATOM     20  C14  11 d         -15.625 204.848 121.401  0.00  0.00     0.008 A 
ATOM     21  C15  11 d         -16.826 204.205 121.759  0.00  0.00    -0.062 A 
ATOM     22  C16  11 d         -17.371 203.238 120.890  0.00  0.00     0.008 A 
ATOM     23  C18  11 d         -17.428 204.425 123.118  0.00  0.00     0.048 C 
ATOM     24  C17  11 d         -16.765 202.974 119.652  0.00  0.00     0.019 A 
ENDBRANCH  17  18
ENDBRANCH  16  17
ENDBRANCH  12  16
TORSDOF 3
ENDMDL
MODEL 5
REMARK VINA RESULT:      -8.4      4.396      5.512
REMARK  3 active torsions:
REMARK  status: ('A' for Active; 'I' for Inactive)
REMARK    1  A    between atoms: C9_12  and  C11_14 
REMARK    2  A    between atoms: C11_14  and  S1_15 
REMARK    3  A    between atoms: S1_15  and  C12_16 
ROOT
ATOM      1  C1   11 d         -12.279 206.057 113.976  0.00  0.00     0.268 A 
ATOM      2  N1   11 d         -13.526 206.136 113.423  0.00  0.00    -0.107 N 
ATOM      3  C2   11 d         -14.636 205.853 114.142  0.00  0.00     0.715 A 
ATOM      4  N2   11 d         -15.736 205.986 113.375  0.00  0.00    -0.187 N 
ATOM      5  C3   11 d         -15.312 206.370 112.154  0.00  0.00     0.077 A 
ATOM      6  C4   11 d         -13.927 206.468 112.173  0.00  0.00     0.087 A 
ATOM      7  C5   11 d         -13.212 206.858 111.031  0.00  0.00     0.033 A 
ATOM      8  C6   11 d         -13.940 207.151 109.859  0.00  0.00     0.002 A 
ATOM      9  C7   11 d         -15.351 207.050 109.844  0.00  0.00     0.002 A 
ATOM     10  C8   11 d         -16.053 206.655 111.001  0.00  0.00     0.032 A 
ATOM     11  N3   11 d         -14.568 205.500 115.450  0.00  0.00    -0.068 NA
ATOM     12  C9   11 d         -13.348 205.454 116.073  0.00  0.00     0.068 A 
ATOM     13  C10  11 d         -12.170 205.693 115.329  0.00  0.00     0.104 A 
ATOM     14  O1   11 d         -11.245 206.294 113.303  0.00  0.00    -0.267 OA
ATOM     15  H1   11 d         -16.725 205.825 113.678  0.00  0.00     0.184 HD
ENDROOT
BRANCH  12  16
ATOM     16  C11  11 d         -13.272 204.994 117.498  0.00  0.00     0.139 C 
BRANCH  16  17
ATOM     17  S1   11 d         -13.537 206.446 118.589  0.00  0.00    -0.124 SA
BRANCH  17  18
ATOM     18  C12  11 d         -11.780 206.852 118.732  0.00  0.00     0.001 A 
ATOM     19  C13  11 d         -10.920 206.004 119.448  0.00  0.00     0.019 A 
ATOM     20  C14  11 d          -9.551 206.301 119.534  0.00  0.00     0.008 A 
ATOM     21  C15  11 d          -9.024 207.431 118.879  0.00  0.00    -0.062 A 
ATOM     22  C16  11 d          -9.900 208.300 118.198  0.00  0.00     0.008 A 
ATOM     23  C18  11 d          -7.573 207.794 119.041  0.00  0.00     0.048 C 
ATOM     24  C17  11 d         -11.269 208.002 118.112  0.00  0.00     0.019 A 
ENDBRANCH  17  18
ENDBRANCH  16  17
ENDBRANCH  12  16
TORSDOF 3
ENDMDL
MODEL 6
REMARK VINA RESULT:      -8.2      4.804      7.608
REMARK  3 active torsions:
REMARK  status: ('A' for Active; 'I' for Inactive)
REMARK    1  A    between atoms: C9_12  and  C11_14 
REMARK    2  A    between atoms: C11_14  and  S1_15 
REMARK    3  A    between atoms: S1_15  and  C12_16 
ROOT
ATOM      1  C1   11 d         -12.331 207.606 114.194  0.00  0.00     0.268 A 
ATOM      2  N1   11 d         -13.569 207.375 113.665  0.00  0.00    -0.107 N 
ATOM      3  C2   11 d         -14.666 207.284 114.451  0.00  0.00     0.715 A 
ATOM      4  N2   11 d         -15.758 207.037 113.701  0.00  0.00    -0.187 N 
ATOM      5  C3   11 d         -15.344 206.983 112.419  0.00  0.00     0.077 A 
ATOM      6  C4   11 d         -13.972 207.195 112.385  0.00  0.00     0.087 A 
ATOM      7  C5   11 d         -13.269 207.200 111.170  0.00  0.00     0.033 A 
ATOM      8  C6   11 d         -13.996 206.985 109.981  0.00  0.00     0.002 A 
ATOM      9  C7   11 d         -15.394 206.769 110.021  0.00  0.00     0.002 A 
ATOM     10  C8   11 d         -16.083 206.766 111.251  0.00  0.00     0.032 A 
ATOM     11  N3   11 d         -14.595 207.438 115.797  0.00  0.00    -0.068 NA
ATOM     12  C9   11 d         -13.387 207.723 116.378  0.00  0.00     0.068 A 
ATOM     13  C10  11 d         -12.219 207.771 115.584  0.00  0.00     0.104 A 
ATOM     14  O1   11 d         -11.307 207.667 113.468  0.00  0.00    -0.267 OA
ATOM     15  H1   11 d         -16.737 206.917 114.054  0.00  0.00     0.184 HD
ENDROOT
BRANCH  12  16
ATOM     16  C11  11 d         -13.302 207.822 117.872  0.00  0.00     0.139 C 
BRANCH  16  17
ATOM     17  S1   11 d         -12.192 206.491 118.477  0.00  0.00    -0.124 SA
BRANCH  17  18
ATOM     18  C12  11 d         -13.457 205.199 118.419  0.00  0.00     0.001 A 
ATOM     19  C13  11 d         -14.331 205.024 119.502  0.00  0.00     0.019 A 
ATOM     20  C14  11 d         -15.334 204.043 119.447  0.00  0.00     0.008 A 
ATOM     21  C15  11 d         -15.490 203.249 118.294  0.00  0.00    -0.062 A 
ATOM     22  C16  11 d         -14.581 203.402 117.227  0.00  0.00     0.008 A 
ATOM     23  C18  11 d         -16.509 202.143 118.267  0.00  0.00     0.048 C 
ATOM     24  C17  11 d         -13.580 204.383 117.284  0.00  0.00     0.019 A 
ENDBRANCH  17  18
ENDBRANCH  16  17
ENDBRANCH  12  16
TORSDOF 3
ENDMDL
MODEL 7
REMARK VINA RESULT:      -8.2      2.838      8.317
REMARK  3 active torsions:
REMARK  status: ('A' for Active; 'I' for Inactive)
REMARK    1  A    between atoms: C9_12  and  C11_14 
REMARK    2  A    between atoms: C11_14  and  S1_15 
REMARK    3  A    between atoms: S1_15  and  C12_16 
ROOT
ATOM      1  C1   11 d          -9.262 208.079 117.170  0.00  0.00     0.268 A 
ATOM      2  N1   11 d          -8.662 208.637 116.078  0.00  0.00    -0.107 N 
ATOM      3  C2   11 d          -9.362 208.918 114.955  0.00  0.00     0.715 A 
ATOM      4  N2   11 d          -8.549 209.445 114.018  0.00  0.00    -0.187 N 
ATOM      5  C3   11 d          -7.318 209.508 114.564  0.00  0.00     0.077 A 
ATOM      6  C4   11 d          -7.378 209.004 115.857  0.00  0.00     0.087 A 
ATOM      7  C5   11 d          -6.234 208.954 116.669  0.00  0.00     0.033 A 
ATOM      8  C6   11 d          -5.019 209.433 116.135  0.00  0.00     0.002 A 
ATOM      9  C7   11 d          -4.964 209.945 114.817  0.00  0.00     0.002 A 
ATOM     10  C8   11 d          -6.123 209.985 114.016  0.00  0.00     0.032 A 
ATOM     11  N3   11 d         -10.694 208.679 114.866  0.00  0.00    -0.068 NA
ATOM     12  C9   11 d         -11.360 208.167 115.949  0.00  0.00     0.068 A 
ATOM     13  C10  11 d         -10.642 207.817 117.114  0.00  0.00     0.104 A 
ATOM     14  O1   11 d          -8.609 207.794 118.205  0.00  0.00    -0.267 OA
ATOM     15  H1   11 d          -8.830 209.749 113.055  0.00  0.00     0.184 HD
ENDROOT
BRANCH  12  16
ATOM     16  C11  11 d         -12.818 207.840 115.821  0.00  0.00     0.139 C 
BRANCH  16  17
ATOM     17  S1   11 d         -12.974 206.072 115.352  0.00  0.00    -0.124 SA
BRANCH  17  18
ATOM     18  C12  11 d         -13.579 206.412 113.681  0.00  0.00     0.001 A 
ATOM     19  C13  11 d         -14.950 206.612 113.458  0.00  0.00     0.019 A 
ATOM     20  C14  11 d         -15.417 206.906 112.167  0.00  0.00     0.008 A 
ATOM     21  C15  11 d         -14.514 207.033 111.094  0.00  0.00    -0.062 A 
ATOM     22  C16  11 d         -13.144 206.787 111.318  0.00  0.00     0.008 A 
ATOM     23  C18  11 d         -15.023 207.264 109.698  0.00  0.00     0.048 C 
ATOM     24  C17  11 d         -12.678 206.494 112.608  0.00  0.00     0.019 A 
ENDBRANCH  17  18
ENDBRANCH  16  17
ENDBRANCH  12  16
TORSDOF 3
ENDMDL
MODEL 8
REMARK VINA RESULT:      -8.2      3.090      8.809
REMARK  3 active torsions:
REMARK  status: ('A' for Active; 'I' for Inactive)
REMARK    1  A    between atoms: C9_12  and  C11_14 
REMARK    2  A    between atoms: C11_14  and  S1_15 
REMARK    3  A    between atoms: S1_15  and  C12_16 
ROOT
ATOM      1  C1   11 d          -7.327 208.542 112.763  0.00  0.00     0.268 A 
ATOM      2  N1   11 d          -6.333 208.489 113.698  0.00  0.00    -0.107 N 
ATOM      3  C2   11 d          -6.591 208.675 115.013  0.00  0.00     0.715 A 
ATOM      4  N2   11 d          -5.452 208.593 115.728  0.00  0.00    -0.187 N 
ATOM      5  C3   11 d          -4.460 208.339 114.850  0.00  0.00     0.077 A 
ATOM      6  C4   11 d          -5.003 208.271 113.574  0.00  0.00     0.087 A 
ATOM      7  C5   11 d          -4.195 208.009 112.456  0.00  0.00     0.033 A 
ATOM      8  C6   11 d          -2.813 207.815 112.666  0.00  0.00     0.002 A 
ATOM      9  C7   11 d          -2.266 207.885 113.968  0.00  0.00     0.002 A 
ATOM     10  C8   11 d          -3.093 208.150 115.079  0.00  0.00     0.032 A 
ATOM     11  N3   11 d          -7.848 208.902 115.468  0.00  0.00    -0.068 NA
ATOM     12  C9   11 d          -8.893 208.915 114.582  0.00  0.00     0.068 A 
ATOM     13  C10  11 d          -8.642 208.775 113.198  0.00  0.00     0.104 A 
ATOM     14  O1   11 d          -7.086 208.395 111.539  0.00  0.00    -0.267 OA
ATOM     15  H1   11 d          -5.363 208.701 116.767  0.00  0.00     0.184 HD
ENDROOT
BRANCH  12  16
ATOM     16  C11  11 d         -10.270 209.236 115.081  0.00  0.00     0.139 C 
BRANCH  16  17
ATOM     17  S1   11 d         -11.021 207.696 115.738  0.00  0.00    -0.124 SA
BRANCH  17  18
ATOM     18  C12  11 d         -12.058 207.400 114.286  0.00  0.00     0.001 A 
ATOM     19  C13  11 d         -13.367 207.905 114.243  0.00  0.00     0.019 A 
ATOM     20  C14  11 d         -14.162 207.704 113.105  0.00  0.00     0.008 A 
ATOM     21  C15  11 d         -13.646 207.021 111.986  0.00  0.00    -0.062 A 
ATOM     22  C16  11 d         -12.346 206.479 112.053  0.00  0.00     0.008 A 
ATOM     23  C18  11 d         -14.525 206.732 110.801  0.00  0.00     0.048 C 
ATOM     24  C17  11 d         -11.552 206.682 113.191  0.00  0.00     0.019 A 
ENDBRANCH  17  18
ENDBRANCH  16  17
ENDBRANCH  12  16
TORSDOF 3
ENDMDL
MODEL 9
REMARK VINA RESULT:      -8.2      2.845      8.479
REMARK  3 active torsions:
REMARK  status: ('A' for Active; 'I' for Inactive)
REMARK    1  A    between atoms: C9_12  and  C11_14 
REMARK    2  A    between atoms: C11_14  and  S1_15 
REMARK    3  A    between atoms: S1_15  and  C12_16 
ROOT
ATOM      1  C1   11 d          -6.665 208.493 115.717  0.00  0.00     0.268 A 
ATOM      2  N1   11 d          -6.204 208.443 114.432  0.00  0.00    -0.107 N 
ATOM      3  C2   11 d          -7.031 208.634 113.379  0.00  0.00     0.715 A 
ATOM      4  N2   11 d          -6.348 208.520 112.222  0.00  0.00    -0.187 N 
ATOM      5  C3   11 d          -5.066 208.266 112.553  0.00  0.00     0.077 A 
ATOM      6  C4   11 d          -4.965 208.216 113.938  0.00  0.00     0.087 A 
ATOM      7  C5   11 d          -3.734 207.972 114.566  0.00  0.00     0.033 A 
ATOM      8  C6   11 d          -2.599 207.780 113.751  0.00  0.00     0.002 A 
ATOM      9  C7   11 d          -2.707 207.831 112.341  0.00  0.00     0.002 A 
ATOM     10  C8   11 d          -3.953 208.075 111.727  0.00  0.00     0.032 A 
ATOM     11  N3   11 d          -8.350 208.903 113.546  0.00  0.00    -0.068 NA
ATOM     12  C9   11 d          -8.858 209.015 114.814  0.00  0.00     0.068 A 
ATOM     13  C10  11 d          -8.026 208.770 115.929  0.00  0.00     0.104 A 
ATOM     14  O1   11 d          -5.903 208.292 116.696  0.00  0.00    -0.267 OA
ATOM     15  H1   11 d          -6.744 208.618 111.257  0.00  0.00     0.184 HD
ENDROOT
BRANCH  12  16
ATOM     16  C11  11 d         -10.330 209.243 114.993  0.00  0.00     0.139 C 
BRANCH  16  17
ATOM     17  S1   11 d         -11.096 207.667 115.541  0.00  0.00    -0.124 SA
BRANCH  17  18
ATOM     18  C12  11 d         -11.988 207.385 113.992  0.00  0.00     0.001 A 
ATOM     19  C13  11 d         -11.319 206.839 112.886  0.00  0.00     0.019 A 
ATOM     20  C14  11 d         -12.016 206.591 111.694  0.00  0.00     0.008 A 
ATOM     21  C15  11 d         -13.397 206.858 111.607  0.00  0.00    -0.062 A 
ATOM     22  C16  11 d         -14.052 207.446 112.707  0.00  0.00     0.008 A 
ATOM     23  C18  11 d         -14.125 206.671 110.304  0.00  0.00     0.048 C 
ATOM     24  C17  11 d         -13.354 207.694 113.899  0.00  0.00     0.019 A 
ENDBRANCH  17  18
ENDBRANCH  16  17
ENDBRANCH  12  16
TORSDOF 3
ENDMDL
MODEL 10
REMARK VINA RESULT:      -8.2      2.786      8.579
REMARK  3 active torsions:
REMARK  status: ('A' for Active; 'I' for Inactive)
REMARK    1  A    between atoms: C9_12  and  C11_14 
REMARK    2  A    between atoms: C11_14  and  S1_15 
REMARK    3  A    between atoms: S1_15  and  C12_16 
ROOT
ATOM      1  C1   11 d          -8.914 208.817 113.438  0.00  0.00     0.268 A 
ATOM      2  N1   11 d          -8.093 208.864 114.528  0.00  0.00    -0.107 N 
ATOM      3  C2   11 d          -8.578 208.713 115.782  0.00  0.00     0.715 A 
ATOM      4  N2   11 d          -7.580 208.815 116.683  0.00  0.00    -0.187 N 
ATOM      5  C3   11 d          -6.446 209.021 115.983  0.00  0.00     0.077 A 
ATOM      6  C4   11 d          -6.757 209.053 114.630  0.00  0.00     0.087 A 
ATOM      7  C5   11 d          -5.760 209.247 113.662  0.00  0.00     0.033 A 
ATOM      8  C6   11 d          -4.429 209.408 114.102  0.00  0.00     0.002 A 
ATOM      9  C7   11 d          -4.118 209.376 115.481  0.00  0.00     0.002 A 
ATOM     10  C8   11 d          -5.133 209.181 116.440  0.00  0.00     0.032 A 
ATOM     11  N3   11 d          -9.895 208.488 116.017  0.00  0.00    -0.068 NA
ATOM     12  C9   11 d         -10.758 208.380 114.958  0.00  0.00     0.068 A 
ATOM     13  C10  11 d         -10.285 208.585 113.642  0.00  0.00     0.104 A 
ATOM     14  O1   11 d          -8.471 208.981 112.274  0.00  0.00    -0.267 OA
ATOM     15  H1   11 d          -7.676 208.741 117.724  0.00  0.00     0.184 HD
ENDROOT
BRANCH  12  16
ATOM     16  C11  11 d         -12.223 208.202 115.225  0.00  0.00     0.139 C 
BRANCH  16  17
ATOM     17  S1   11 d         -12.641 206.429 115.000  0.00  0.00    -0.124 SA
BRANCH  17  18
ATOM     18  C12  11 d         -13.407 206.659 113.377  0.00  0.00     0.001 A 
ATOM     19  C13  11 d         -12.674 206.389 112.211  0.00  0.00     0.019 A 
ATOM     20  C14  11 d         -13.276 206.537 110.951  0.00  0.00     0.008 A 
ATOM     21  C15  11 d         -14.626 206.926 110.848  0.00  0.00    -0.062 A 
ATOM     22  C16  11 d         -15.341 207.238 112.022  0.00  0.00     0.008 A 
ATOM     23  C18  11 d         -15.245 207.166 109.499  0.00  0.00     0.048 C 
ATOM     24  C17  11 d         -14.739 207.089 113.280  0.00  0.00     0.019 A 
ENDBRANCH  17  18
ENDBRANCH  16  17
ENDBRANCH  12  16
TORSDOF 3
ENDMDL
