MODEL 1
REMARK VINA RESULT:      -7.9      0.000      0.000
REMARK  3 active torsions:
REMARK  status: ('A' for Active; 'I' for Inactive)
REMARK    1  A    between atoms: C2_2  and  C3_3 
REMARK    2  A    between atoms: C11_12  and  O1_15 
REMARK    3  A    between atoms: C16_19  and  C17_20 
ROOT
ATOM      1  C1   11 d         -12.253 207.428 117.639  0.00  0.00     0.151 C 
ATOM      2  C2   11 d         -11.766 207.763 116.224  0.00  0.00     0.072 C 
ATOM      3  C6   11 d         -11.558 206.404 115.498  0.00  0.00     0.257 C 
ATOM      4  N1   11 d         -12.817 205.563 115.506  0.00  0.00    -0.035 N 
ATOM      5  C7   11 d         -13.993 206.287 114.858  0.00  0.00     0.420 C 
ATOM      6  C8   11 d         -13.931 206.460 113.327  0.00  0.00    -0.000 A 
ATOM      7  C9   11 d         -14.914 207.247 112.674  0.00  0.00     0.014 A 
ATOM      8  C10  11 d         -14.850 207.493 111.294  0.00  0.00     0.037 A 
ATOM      9  C11  11 d         -13.828 206.928 110.525  0.00  0.00     0.065 A 
ATOM     10  C12  11 d         -12.856 206.134 111.140  0.00  0.00     0.037 A 
ATOM     11  C13  11 d         -12.913 205.887 112.520  0.00  0.00     0.014 A 
ATOM     12  N2   11 d         -14.225 207.588 115.625  0.00  0.00    -0.035 N 
ATOM     13  C14  11 d         -12.997 208.462 115.573  0.00  0.00     0.257 C 
ATOM     14  C15  11 d         -14.592 207.277 117.056  0.00  0.00     0.257 C 
ATOM     15  C16  11 d         -13.460 206.491 117.782  0.00  0.00     0.072 C 
ATOM     16  C20  11 d         -13.156 205.217 116.938  0.00  0.00     0.257 C 
ATOM     17  O2   11 d         -11.695 207.921 118.648  0.00  0.00    -0.296 OA
ATOM     18  H10  11 d         -12.624 204.629 115.005  0.00  0.00     0.282 HD
ATOM     19  H17  11 d         -15.047 208.151 115.219  0.00  0.00     0.282 HD
ENDROOT
BRANCH   2  20
ATOM     20  C3   11 d         -10.482 208.678 116.208  0.00  0.00    -0.004 C 
ATOM     21  C4   11 d         -10.017 209.144 114.813  0.00  0.00     0.011 C 
ATOM     22  C5   11 d          -9.270 208.070 116.945  0.00  0.00     0.011 C 
ENDBRANCH   2  20
BRANCH  15  23
ATOM     23  C17  11 d         -13.819 206.167 119.282  0.00  0.00    -0.004 C 
ATOM     24  C18  11 d         -14.442 204.768 119.490  0.00  0.00     0.011 C 
ATOM     25  C19  11 d         -14.714 207.204 119.990  0.00  0.00     0.011 C 
ENDBRANCH  15  23
BRANCH   9  26
ATOM     26  O1   11 d         -13.694 207.278 109.167  0.00  0.00    -0.361 OA
ATOM     27  H16  11 d         -13.774 206.395 108.627  0.00  0.00     0.217 HD
ENDBRANCH   9  26
TORSDOF 3
ENDMDL
MODEL 2
REMARK VINA RESULT:      -7.8      1.894      6.145
REMARK  3 active torsions:
REMARK  status: ('A' for Active; 'I' for Inactive)
REMARK    1  A    between atoms: C2_2  and  C3_3 
REMARK    2  A    between atoms: C11_12  and  O1_15 
REMARK    3  A    between atoms: C16_19  and  C17_20 
ROOT
ATOM      1  C1   11 d         -12.690 206.888 111.951  0.00  0.00     0.151 C 
ATOM      2  C2   11 d         -11.532 207.224 112.898  0.00  0.00     0.072 C 
ATOM      3  C6   11 d         -12.017 208.408 113.782  0.00  0.00     0.257 C 
ATOM      4  N1   11 d         -13.301 208.076 114.512  0.00  0.00    -0.035 N 
ATOM      5  C7   11 d         -13.155 206.839 115.393  0.00  0.00     0.420 C 
ATOM      6  C8   11 d         -12.291 206.999 116.660  0.00  0.00    -0.000 A 
ATOM      7  C9   11 d         -11.992 205.858 117.448  0.00  0.00     0.014 A 
ATOM      8  C10  11 d         -11.147 205.947 118.565  0.00  0.00     0.037 A 
ATOM      9  C11  11 d         -10.613 207.181 118.947  0.00  0.00     0.065 A 
ATOM     10  C12  11 d         -10.905 208.324 118.198  0.00  0.00     0.037 A 
ATOM     11  C13  11 d         -11.747 208.241 117.079  0.00  0.00     0.014 A 
ATOM     12  N2   11 d         -12.742 205.671 114.498  0.00  0.00    -0.035 N 
ATOM     13  C14  11 d         -11.432 205.965 113.811  0.00  0.00     0.257 C 
ATOM     14  C15  11 d         -13.824 205.401 113.481  0.00  0.00     0.257 C 
ATOM     15  C16  11 d         -14.074 206.637 112.566  0.00  0.00     0.072 C 
ATOM     16  C20  11 d         -14.392 207.851 113.490  0.00  0.00     0.257 C 
ATOM     17  O2   11 d         -12.507 206.798 110.713  0.00  0.00    -0.296 OA
ATOM     18  H10  11 d         -13.606 208.926 115.100  0.00  0.00     0.282 HD
ATOM     19  H17  11 d         -12.622 204.760 115.058  0.00  0.00     0.282 HD
ENDROOT
BRANCH   2  20
ATOM     20  C3   11 d         -10.179 207.525 112.146  0.00  0.00    -0.004 C 
ATOM     21  C4   11 d          -9.054 208.119 113.017  0.00  0.00     0.011 C 
ATOM     22  C5   11 d         -10.343 208.412 110.893  0.00  0.00     0.011 C 
ENDBRANCH   2  20
BRANCH  15  23
ATOM     23  C17  11 d         -15.192 206.373 111.487  0.00  0.00    -0.004 C 
ATOM     24  C18  11 d         -15.521 207.601 110.609  0.00  0.00     0.011 C 
ATOM     25  C19  11 d         -16.517 205.800 112.031  0.00  0.00     0.011 C 
ENDBRANCH  15  23
BRANCH   9  26
ATOM     26  O1   11 d          -9.667 207.245 119.989  0.00  0.00    -0.361 OA
ATOM     27  H16  11 d          -9.692 206.324 120.465  0.00  0.00     0.217 HD
ENDBRANCH   9  26
TORSDOF 3
ENDMDL
MODEL 3
REMARK VINA RESULT:      -7.5      1.476      6.079
REMARK  3 active torsions:
REMARK  status: ('A' for Active; 'I' for Inactive)
REMARK    1  A    between atoms: C2_2  and  C3_3 
REMARK    2  A    between atoms: C11_12  and  O1_15 
REMARK    3  A    between atoms: C16_19  and  C17_20 
ROOT
ATOM      1  C1   11 d         -12.178 207.269 112.539  0.00  0.00     0.151 C 
ATOM      2  C2   11 d         -11.664 207.442 113.973  0.00  0.00     0.072 C 
ATOM      3  C6   11 d         -12.654 208.409 114.682  0.00  0.00     0.257 C 
ATOM      4  N1   11 d         -14.078 207.898 114.621  0.00  0.00    -0.035 N 
ATOM      5  C7   11 d         -14.216 206.513 115.247  0.00  0.00     0.420 C 
ATOM      6  C8   11 d         -14.089 206.440 116.782  0.00  0.00    -0.000 A 
ATOM      7  C9   11 d         -14.061 205.173 117.419  0.00  0.00     0.014 A 
ATOM      8  C10  11 d         -13.869 205.060 118.805  0.00  0.00     0.037 A 
ATOM      9  C11  11 d         -13.740 206.206 119.594  0.00  0.00     0.065 A 
ATOM     10  C12  11 d         -13.780 207.468 118.994  0.00  0.00     0.037 A 
ATOM     11  C13  11 d         -13.969 207.588 117.609  0.00  0.00     0.014 A 
ATOM     12  N2   11 d         -13.285 205.563 114.496  0.00  0.00    -0.035 N 
ATOM     13  C14  11 d         -11.855 206.029 114.599  0.00  0.00     0.257 C 
ATOM     14  C15  11 d         -13.708 205.472 113.050  0.00  0.00     0.257 C 
ATOM     15  C16  11 d         -13.644 206.859 112.344  0.00  0.00     0.072 C 
ATOM     16  C20  11 d         -14.513 207.851 113.175  0.00  0.00     0.257 C 
ATOM     17  O2   11 d         -11.418 207.437 111.555  0.00  0.00    -0.296 OA
ATOM     18  H10  11 d         -14.730 208.602 115.112  0.00  0.00     0.282 HD
ATOM     19  H17  11 d         -13.334 204.562 114.887  0.00  0.00     0.282 HD
ENDROOT
BRANCH   2  20
ATOM     20  C3   11 d         -10.165 207.929 114.043  0.00  0.00    -0.004 C 
ATOM     21  C4   11 d          -9.770 208.675 115.334  0.00  0.00     0.011 C 
ATOM     22  C5   11 d          -9.727 208.785 112.835  0.00  0.00     0.011 C 
ENDBRANCH   2  20
BRANCH  15  23
ATOM     23  C17  11 d         -14.070 206.784 110.829  0.00  0.00    -0.004 C 
ATOM     24  C18  11 d         -15.301 207.651 110.479  0.00  0.00     0.011 C 
ATOM     25  C19  11 d         -14.307 205.364 110.274  0.00  0.00     0.011 C 
ENDBRANCH  15  23
BRANCH   9  26
ATOM     26  O1   11 d         -13.421 206.088 120.960  0.00  0.00    -0.361 OA
ATOM     27  H16  11 d         -12.389 206.172 121.029  0.00  0.00     0.217 HD
ENDBRANCH   9  26
TORSDOF 3
ENDMDL
MODEL 4
REMARK VINA RESULT:      -7.0      2.117      6.502
REMARK  3 active torsions:
REMARK  status: ('A' for Active; 'I' for Inactive)
REMARK    1  A    between atoms: C2_2  and  C3_3 
REMARK    2  A    between atoms: C11_12  and  O1_15 
REMARK    3  A    between atoms: C16_19  and  C17_20 
ROOT
ATOM      1  C1   11 d         -14.042 205.901 115.358  0.00  0.00     0.151 C 
ATOM      2  C2   11 d         -13.526 205.749 116.794  0.00  0.00     0.072 C 
ATOM      3  C6   11 d         -12.117 205.100 116.688  0.00  0.00     0.257 C 
ATOM      4  N1   11 d         -11.189 205.911 115.809  0.00  0.00    -0.035 N 
ATOM      5  C7   11 d         -11.030 207.343 116.313  0.00  0.00     0.420 C 
ATOM      6  C8   11 d         -10.217 207.526 117.610  0.00  0.00    -0.000 A 
ATOM      7  C9   11 d         -10.149 208.807 118.215  0.00  0.00     0.014 A 
ATOM      8  C10  11 d          -9.484 209.001 119.436  0.00  0.00     0.037 A 
ATOM      9  C11  11 d          -8.837 207.932 120.062  0.00  0.00     0.065 A 
ATOM     10  C12  11 d          -8.874 206.662 119.479  0.00  0.00     0.037 A 
ATOM     11  C13  11 d          -9.539 206.461 118.260  0.00  0.00     0.014 A 
ATOM     12  N2   11 d         -12.415 207.985 116.348  0.00  0.00    -0.035 N 
ATOM     13  C14  11 d         -13.333 207.220 117.268  0.00  0.00     0.257 C 
ATOM     14  C15  11 d         -12.989 208.037 114.952  0.00  0.00     0.257 C 
ATOM     15  C16  11 d         -13.140 206.612 114.340  0.00  0.00     0.072 C 
ATOM     16  C20  11 d         -11.744 205.922 114.404  0.00  0.00     0.257 C 
ATOM     17  O2   11 d         -15.176 205.477 115.031  0.00  0.00    -0.296 OA
ATOM     18  H10  11 d         -10.231 205.420 115.755  0.00  0.00     0.282 HD
ATOM     19  H17  11 d         -12.376 209.003 116.694  0.00  0.00     0.282 HD
ENDROOT
BRANCH   2  20
ATOM     20  C3   11 d         -14.511 204.945 117.727  0.00  0.00    -0.004 C 
ATOM     21  C4   11 d         -14.337 205.189 119.241  0.00  0.00     0.011 C 
ATOM     22  C5   11 d         -14.508 203.422 117.478  0.00  0.00     0.011 C 
ENDBRANCH   2  20
BRANCH  15  23
ATOM     23  C17  11 d         -13.749 206.642 112.887  0.00  0.00    -0.004 C 
ATOM     24  C18  11 d         -12.690 206.613 111.762  0.00  0.00     0.011 C 
ATOM     25  C19  11 d         -14.726 207.800 112.600  0.00  0.00     0.011 C 
ENDBRANCH  15  23
BRANCH   9  26
ATOM     26  O1   11 d          -8.281 208.100 121.345  0.00  0.00    -0.361 OA
ATOM     27  H16  11 d          -8.618 207.303 121.918  0.00  0.00     0.217 HD
ENDBRANCH   9  26
TORSDOF 3
ENDMDL
MODEL 5
REMARK VINA RESULT:      -7.0      1.981      6.484
REMARK  3 active torsions:
REMARK  status: ('A' for Active; 'I' for Inactive)
REMARK    1  A    between atoms: C2_2  and  C3_3 
REMARK    2  A    between atoms: C11_12  and  O1_15 
REMARK    3  A    between atoms: C16_19  and  C17_20 
ROOT
ATOM      1  C1   11 d         -12.851 207.291 112.286  0.00  0.00     0.151 C 
ATOM      2  C2   11 d         -13.901 206.638 113.192  0.00  0.00     0.072 C 
ATOM      3  C6   11 d         -13.204 205.425 113.871  0.00  0.00     0.257 C 
ATOM      4  N1   11 d         -11.954 205.841 114.618  0.00  0.00    -0.035 N 
ATOM      5  C7   11 d         -12.248 206.894 115.683  0.00  0.00     0.420 C 
ATOM      6  C8   11 d         -13.020 206.411 116.927  0.00  0.00    -0.000 A 
ATOM      7  C9   11 d         -13.455 207.360 117.889  0.00  0.00     0.014 A 
ATOM      8  C10  11 d         -14.226 206.972 118.995  0.00  0.00     0.037 A 
ATOM      9  C11  11 d         -14.549 205.627 119.191  0.00  0.00     0.065 A 
ATOM     10  C12  11 d         -14.120 204.669 118.268  0.00  0.00     0.037 A 
ATOM     11  C13  11 d         -13.351 205.050 117.159  0.00  0.00     0.014 A 
ATOM     12  N2   11 d         -12.872 208.103 114.989  0.00  0.00    -0.035 N 
ATOM     13  C14  11 d         -14.151 207.714 114.291  0.00  0.00     0.257 C 
ATOM     14  C15  11 d         -11.890 208.690 114.004  0.00  0.00     0.257 C 
ATOM     15  C16  11 d         -11.496 207.660 112.904  0.00  0.00     0.072 C 
ATOM     16  C20  11 d         -10.956 206.387 113.622  0.00  0.00     0.257 C 
ATOM     17  O2   11 d         -13.100 207.535 111.081  0.00  0.00    -0.296 OA
ATOM     18  H10  11 d         -11.498 204.972 115.061  0.00  0.00     0.282 HD
ATOM     19  H17  11 d         -13.105 208.889 115.686  0.00  0.00     0.282 HD
ENDROOT
BRANCH   2  20
ATOM     20  C3   11 d         -15.224 206.245 112.429  0.00  0.00    -0.004 C 
ATOM     21  C4   11 d         -16.476 206.079 113.315  0.00  0.00     0.011 C 
ATOM     22  C5   11 d         -15.087 204.988 111.544  0.00  0.00     0.011 C 
ENDBRANCH   2  20
BRANCH  15  23
ATOM     23  C17  11 d         -10.479 208.256 111.857  0.00  0.00    -0.004 C 
ATOM     24  C18  11 d         -10.502 207.546 110.485  0.00  0.00     0.011 C 
ATOM     25  C19  11 d          -9.013 208.344 112.331  0.00  0.00     0.011 C 
ENDBRANCH  15  23
BRANCH   9  26
ATOM     26  O1   11 d         -15.428 205.258 120.229  0.00  0.00    -0.361 OA
ATOM     27  H16  11 d         -14.974 204.472 120.732  0.00  0.00     0.217 HD
ENDBRANCH   9  26
TORSDOF 3
ENDMDL
MODEL 6
REMARK VINA RESULT:      -6.7      1.846      4.128
REMARK  3 active torsions:
REMARK  status: ('A' for Active; 'I' for Inactive)
REMARK    1  A    between atoms: C2_2  and  C3_3 
REMARK    2  A    between atoms: C11_12  and  O1_15 
REMARK    3  A    between atoms: C16_19  and  C17_20 
ROOT
ATOM      1  C1   11 d         -11.438 206.352 118.954  0.00  0.00     0.151 C 
ATOM      2  C2   11 d         -12.589 206.038 117.991  0.00  0.00     0.072 C 
ATOM      3  C6   11 d         -13.200 207.406 117.576  0.00  0.00     0.257 C 
ATOM      4  N1   11 d         -12.160 208.327 116.974  0.00  0.00    -0.035 N 
ATOM      5  C7   11 d         -11.482 207.706 115.756  0.00  0.00     0.420 C 
ATOM      6  C8   11 d         -12.342 207.586 114.482  0.00  0.00    -0.000 A 
ATOM      7  C9   11 d         -11.828 206.890 113.357  0.00  0.00     0.014 A 
ATOM      8  C10  11 d         -12.607 206.692 112.207  0.00  0.00     0.037 A 
ATOM      9  C11  11 d         -13.900 207.217 112.132  0.00  0.00     0.065 A 
ATOM     10  C12  11 d         -14.425 207.922 113.219  0.00  0.00     0.037 A 
ATOM     11  C13  11 d         -13.653 208.121 114.374  0.00  0.00     0.014 A 
ATOM     12  N2   11 d         -10.832 206.396 116.197  0.00  0.00    -0.035 N 
ATOM     13  C14  11 d         -11.868 205.446 116.744  0.00  0.00     0.257 C 
ATOM     14  C15  11 d          -9.773 206.677 117.235  0.00  0.00     0.257 C 
ATOM     15  C16  11 d         -10.374 207.360 118.500  0.00  0.00     0.072 C 
ATOM     16  C20  11 d         -11.125 208.641 118.030  0.00  0.00     0.257 C 
ATOM     17  O2   11 d         -11.357 205.785 120.070  0.00  0.00    -0.296 OA
ATOM     18  H10  11 d         -12.623 209.265 116.713  0.00  0.00     0.282 HD
ATOM     19  H17  11 d         -10.332 205.903 115.382  0.00  0.00     0.282 HD
ENDROOT
BRANCH   2  20
ATOM     20  C3   11 d         -13.652 205.042 118.595  0.00  0.00    -0.004 C 
ATOM     21  C4   11 d         -14.482 204.251 117.563  0.00  0.00     0.011 C 
ATOM     22  C5   11 d         -14.625 205.696 119.600  0.00  0.00     0.011 C 
ENDBRANCH   2  20
BRANCH  15  23
ATOM     23  C17  11 d          -9.285 207.651 119.602  0.00  0.00    -0.004 C 
ATOM     24  C18  11 d          -8.920 209.145 119.744  0.00  0.00     0.011 C 
ATOM     25  C19  11 d          -7.976 206.845 119.472  0.00  0.00     0.011 C 
ENDBRANCH  15  23
BRANCH   9  26
ATOM     26  O1   11 d         -14.722 206.909 111.031  0.00  0.00    -0.361 OA
ATOM     27  H16  11 d         -15.349 207.726 110.896  0.00  0.00     0.217 HD
ENDBRANCH   9  26
TORSDOF 3
ENDMDL
MODEL 7
REMARK VINA RESULT:      -6.3      2.384      4.650
REMARK  3 active torsions:
REMARK  status: ('A' for Active; 'I' for Inactive)
REMARK    1  A    between atoms: C2_2  and  C3_3 
REMARK    2  A    between atoms: C11_12  and  O1_15 
REMARK    3  A    between atoms: C16_19  and  C17_20 
ROOT
ATOM      1  C1   11 d         -14.069 206.147 115.221  0.00  0.00     0.151 C 
ATOM      2  C2   11 d         -13.377 206.575 113.922  0.00  0.00     0.072 C 
ATOM      3  C6   11 d         -13.215 208.120 113.998  0.00  0.00     0.257 C 
ATOM      4  N1   11 d         -12.459 208.546 115.239  0.00  0.00    -0.035 N 
ATOM      5  C7   11 d         -11.076 207.906 115.314  0.00  0.00     0.420 C 
ATOM      6  C8   11 d         -10.028 208.423 114.307  0.00  0.00    -0.000 A 
ATOM      7  C9   11 d          -8.768 207.778 114.221  0.00  0.00     0.014 A 
ATOM      8  C10  11 d          -7.816 208.167 113.266  0.00  0.00     0.037 A 
ATOM      9  C11  11 d          -8.080 209.235 112.403  0.00  0.00     0.065 A 
ATOM     10  C12  11 d          -9.308 209.899 112.478  0.00  0.00     0.037 A 
ATOM     11  C13  11 d         -10.265 209.513 113.428  0.00  0.00     0.014 A 
ATOM     12  N2   11 d         -11.257 206.390 115.304  0.00  0.00    -0.035 N 
ATOM     13  C14  11 d         -11.956 205.946 114.043  0.00  0.00     0.257 C 
ATOM     14  C15  11 d         -12.041 205.962 116.521  0.00  0.00     0.257 C 
ATOM     15  C16  11 d         -13.457 206.611 116.550  0.00  0.00     0.072 C 
ATOM     16  C20  11 d         -13.269 208.155 116.454  0.00  0.00     0.257 C 
ATOM     17  O2   11 d         -15.092 205.421 115.199  0.00  0.00    -0.296 OA
ATOM     18  H10  11 d         -12.382 209.620 115.257  0.00  0.00     0.282 HD
ATOM     19  H17  11 d         -10.315 205.873 115.356  0.00  0.00     0.282 HD
ENDROOT
BRANCH   2  20
ATOM     20  C3   11 d         -14.134 206.094 112.625  0.00  0.00    -0.004 C 
ATOM     21  C4   11 d         -13.251 205.900 111.375  0.00  0.00     0.011 C 
ATOM     22  C5   11 d         -15.337 206.980 112.237  0.00  0.00     0.011 C 
ENDBRANCH   2  20
BRANCH  15  23
ATOM     23  C17  11 d         -14.298 206.168 117.807  0.00  0.00    -0.004 C 
ATOM     24  C18  11 d         -14.082 207.058 119.052  0.00  0.00     0.011 C 
ATOM     25  C19  11 d         -14.130 204.695 118.233  0.00  0.00     0.011 C 
ENDBRANCH  15  23
BRANCH   9  26
ATOM     26  O1   11 d          -7.178 209.540 111.365  0.00  0.00    -0.361 OA
ATOM     27  H16  11 d          -7.722 210.052 110.645  0.00  0.00     0.217 HD
ENDBRANCH   9  26
TORSDOF 3
ENDMDL
MODEL 8
REMARK VINA RESULT:      -6.3      6.031      8.518
REMARK  3 active torsions:
REMARK  status: ('A' for Active; 'I' for Inactive)
REMARK    1  A    between atoms: C2_2  and  C3_3 
REMARK    2  A    between atoms: C11_12  and  O1_15 
REMARK    3  A    between atoms: C16_19  and  C17_20 
ROOT
ATOM      1  C1   11 d          -4.709 208.003 118.617  0.00  0.00     0.151 C 
ATOM      2  C2   11 d          -5.917 207.542 117.793  0.00  0.00     0.072 C 
ATOM      3  C6   11 d          -6.829 208.789 117.615  0.00  0.00     0.257 C 
ATOM      4  N1   11 d          -6.085 209.944 116.979  0.00  0.00    -0.035 N 
ATOM      5  C7   11 d          -5.501 209.569 115.619  0.00  0.00     0.420 C 
ATOM      6  C8   11 d          -6.511 209.380 114.470  0.00  0.00    -0.000 A 
ATOM      7  C9   11 d          -6.058 208.892 113.217  0.00  0.00     0.014 A 
ATOM      8  C10  11 d          -6.955 208.633 112.170  0.00  0.00     0.037 A 
ATOM      9  C11  11 d          -8.319 208.894 112.331  0.00  0.00     0.065 A 
ATOM     10  C12  11 d          -8.791 209.391 113.549  0.00  0.00     0.037 A 
ATOM     11  C13  11 d          -7.899 209.649 114.601  0.00  0.00     0.014 A 
ATOM     12  N2   11 d          -4.558 208.385 115.823  0.00  0.00    -0.035 N 
ATOM     13  C14  11 d          -5.301 207.207 116.402  0.00  0.00     0.257 C 
ATOM     14  C15  11 d          -3.421 208.789 116.730  0.00  0.00     0.257 C 
ATOM     15  C16  11 d          -3.935 209.236 118.132  0.00  0.00     0.072 C 
ATOM     16  C20  11 d          -4.975 210.374 117.910  0.00  0.00     0.257 C 
ATOM     17  O2   11 d          -4.351 207.378 119.644  0.00  0.00    -0.296 OA
ATOM     18  H10  11 d          -6.749 210.788 116.886  0.00  0.00     0.282 HD
ATOM     19  H17  11 d          -4.108 208.067 114.899  0.00  0.00     0.282 HD
ENDROOT
BRANCH   2  20
ATOM     20  C3   11 d          -6.669 206.309 118.427  0.00  0.00    -0.004 C 
ATOM     21  C4   11 d          -7.410 206.593 119.750  0.00  0.00     0.011 C 
ATOM     22  C5   11 d          -5.776 205.066 118.627  0.00  0.00     0.011 C 
ENDBRANCH   2  20
BRANCH  15  23
ATOM     23  C17  11 d          -2.761 209.651 119.099  0.00  0.00    -0.004 C 
ATOM     24  C18  11 d          -2.842 211.113 119.592  0.00  0.00     0.011 C 
ATOM     25  C19  11 d          -1.337 209.401 118.561  0.00  0.00     0.011 C 
ENDBRANCH  15  23
BRANCH   9  26
ATOM     26  O1   11 d          -9.231 208.515 111.326  0.00  0.00    -0.361 OA
ATOM     27  H16  11 d          -9.181 207.481 111.259  0.00  0.00     0.217 HD
ENDBRANCH   9  26
TORSDOF 3
ENDMDL
MODEL 9
REMARK VINA RESULT:      -6.2      6.794      9.007
REMARK  3 active torsions:
REMARK  status: ('A' for Active; 'I' for Inactive)
REMARK    1  A    between atoms: C2_2  and  C3_3 
REMARK    2  A    between atoms: C11_12  and  O1_15 
REMARK    3  A    between atoms: C16_19  and  C17_20 
ROOT
ATOM      1  C1   11 d          -4.902 208.792 120.137  0.00  0.00     0.151 C 
ATOM      2  C2   11 d          -5.456 207.992 118.952  0.00  0.00     0.072 C 
ATOM      3  C6   11 d          -6.686 208.784 118.424  0.00  0.00     0.257 C 
ATOM      4  N1   11 d          -6.324 210.208 118.058  0.00  0.00    -0.035 N 
ATOM      5  C7   11 d          -5.219 210.265 117.007  0.00  0.00     0.420 C 
ATOM      6  C8   11 d          -5.609 209.831 115.580  0.00  0.00    -0.000 A 
ATOM      7  C9   11 d          -4.603 209.720 114.586  0.00  0.00     0.014 A 
ATOM      8  C10  11 d          -4.903 209.255 113.296  0.00  0.00     0.037 A 
ATOM      9  C11  11 d          -6.218 208.928 112.954  0.00  0.00     0.065 A 
ATOM     10  C12  11 d          -7.232 209.044 113.909  0.00  0.00     0.037 A 
ATOM     11  C13  11 d          -6.938 209.506 115.201  0.00  0.00     0.014 A 
ATOM     12  N2   11 d          -3.997 209.539 117.569  0.00  0.00    -0.035 N 
ATOM     13  C14  11 d          -4.330 208.102 117.882  0.00  0.00     0.257 C 
ATOM     14  C15  11 d          -3.508 210.250 118.808  0.00  0.00     0.257 C 
ATOM     15  C16  11 d          -4.597 210.281 119.921  0.00  0.00     0.072 C 
ATOM     16  C20  11 d          -5.877 210.928 119.309  0.00  0.00     0.257 C 
ATOM     17  O2   11 d          -4.684 208.242 121.242  0.00  0.00    -0.296 OA
ATOM     18  H10  11 d          -7.205 210.721 117.709  0.00  0.00     0.282 HD
ATOM     19  H17  11 d          -3.175 209.543 116.875  0.00  0.00     0.282 HD
ENDROOT
BRANCH   2  20
ATOM     20  C3   11 d          -5.792 206.495 119.315  0.00  0.00    -0.004 C 
ATOM     21  C4   11 d          -5.466 205.458 118.219  0.00  0.00     0.011 C 
ATOM     22  C5   11 d          -7.248 206.272 119.775  0.00  0.00     0.011 C 
ENDBRANCH   2  20
BRANCH  15  23
ATOM     23  C17  11 d          -4.102 211.008 121.228  0.00  0.00    -0.004 C 
ATOM     24  C18  11 d          -5.230 211.696 122.029  0.00  0.00     0.011 C 
ATOM     25  C19  11 d          -2.961 212.027 121.030  0.00  0.00     0.011 C 
ENDBRANCH  15  23
BRANCH   9  26
ATOM     26  O1   11 d          -6.495 208.343 111.703  0.00  0.00    -0.361 OA
ATOM     27  H16  11 d          -7.524 208.216 111.659  0.00  0.00     0.217 HD
ENDBRANCH   9  26
TORSDOF 3
ENDMDL
MODEL 10
REMARK VINA RESULT:      -5.9      6.814      8.186
REMARK  3 active torsions:
REMARK  status: ('A' for Active; 'I' for Inactive)
REMARK    1  A    between atoms: C2_2  and  C3_3 
REMARK    2  A    between atoms: C11_12  and  O1_15 
REMARK    3  A    between atoms: C16_19  and  C17_20 
ROOT
ATOM      1  C1   11 d          -6.062 208.015 119.917  0.00  0.00     0.151 C 
ATOM      2  C2   11 d          -5.261 208.884 118.940  0.00  0.00     0.072 C 
ATOM      3  C6   11 d          -4.090 208.000 118.425  0.00  0.00     0.257 C 
ATOM      4  N1   11 d          -4.588 206.713 117.801  0.00  0.00    -0.035 N 
ATOM      5  C7   11 d          -5.548 206.973 116.644  0.00  0.00     0.420 C 
ATOM      6  C8   11 d          -4.926 207.542 115.353  0.00  0.00    -0.000 A 
ATOM      7  C9   11 d          -5.774 207.942 114.289  0.00  0.00     0.014 A 
ATOM      8  C10  11 d          -5.254 208.536 113.129  0.00  0.00     0.037 A 
ATOM      9  C11  11 d          -3.875 208.707 112.983  0.00  0.00     0.065 A 
ATOM     10  C12  11 d          -3.014 208.306 114.009  0.00  0.00     0.037 A 
ATOM     11  C13  11 d          -3.528 207.714 115.173  0.00  0.00     0.014 A 
ATOM     12  N2   11 d          -6.724 207.785 117.182  0.00  0.00    -0.035 N 
ATOM     13  C14  11 d          -6.248 209.097 117.753  0.00  0.00     0.257 C 
ATOM     14  C15  11 d          -7.457 206.987 118.234  0.00  0.00     0.257 C 
ATOM     15  C16  11 d          -6.531 206.635 119.436  0.00  0.00     0.072 C 
ATOM     16  C20  11 d          -5.281 205.898 118.868  0.00  0.00     0.257 C 
ATOM     17  O2   11 d          -6.344 208.429 121.067  0.00  0.00    -0.296 OA
ATOM     18  H10  11 d          -3.745 206.129 117.471  0.00  0.00     0.282 HD
ATOM     19  H17  11 d          -7.445 208.003 116.414  0.00  0.00     0.282 HD
ENDROOT
BRANCH   2  20
ATOM     20  C3   11 d          -4.780 210.247 119.569  0.00  0.00    -0.004 C 
ATOM     21  C4   11 d          -5.698 211.459 119.307  0.00  0.00     0.011 C 
ATOM     22  C5   11 d          -3.337 210.640 119.186  0.00  0.00     0.011 C 
ENDBRANCH   2  20
BRANCH  15  23
ATOM     23  C17  11 d          -7.280 205.812 120.552  0.00  0.00    -0.004 C 
ATOM     24  C18  11 d          -6.787 204.354 120.694  0.00  0.00     0.011 C 
ATOM     25  C19  11 d          -8.819 205.793 120.444  0.00  0.00     0.011 C 
ENDBRANCH  15  23
BRANCH   9  26
ATOM     26  O1   11 d          -3.366 209.416 111.877  0.00  0.00    -0.361 OA
ATOM     27  H16  11 d          -4.173 209.599 111.250  0.00  0.00     0.217 HD
ENDBRANCH   9  26
TORSDOF 3
ENDMDL
