MODEL 1
REMARK VINA RESULT:      -8.9      0.000      0.000
REMARK  4 active torsions:
REMARK  status: ('A' for Active; 'I' for Inactive)
REMARK    1  A    between atoms: C1_1  and  C2_2 
REMARK    2  A    between atoms: C1_1  and  C9_11 
REMARK    3  A    between atoms: C5_5  and  O1_6 
REMARK    4  A    between atoms: C9_11  and  N1_12 
ROOT
ATOM      1  N1   11 d         -11.902 207.055 111.746  0.00  0.00    -0.349 N 
ATOM      2  C10  11 d         -13.290 206.873 111.782  0.00  0.00     0.044 A 
ATOM      3  C11  11 d         -14.061 207.023 110.592  0.00  0.00    -0.009 A 
ATOM      4  C12  11 d         -15.458 206.842 110.606  0.00  0.00     0.020 A 
ATOM      5  C13  11 d         -16.130 206.536 111.801  0.00  0.00    -0.061 A 
ATOM      6  C14  11 d         -15.381 206.347 112.972  0.00  0.00     0.009 A 
ATOM      7  C15  11 d         -13.991 206.527 112.969  0.00  0.00     0.031 A 
ATOM      8  C16  11 d         -17.605 206.242 111.791  0.00  0.00     0.048 C 
ATOM      9  C17  11 d         -13.421 207.350 109.391  0.00  0.00     0.015 A 
ATOM     10  C18  11 d         -12.041 207.527 109.368  0.00  0.00     0.018 A 
ATOM     11  C19  11 d         -11.302 207.377 110.544  0.00  0.00     0.092 A 
ENDROOT
BRANCH   1  12
ATOM     12  C9   11 d         -11.110 206.899 113.008  0.00  0.00     0.212 C 
BRANCH  12  13
ATOM     13  C1   11 d         -10.610 208.016 113.930  0.00  0.00     0.177 C 
ATOM     14  O2   11 d         -11.360 208.537 114.792  0.00  0.00    -0.291 OA
BRANCH  13  15
ATOM     15  C2   11 d          -9.199 208.523 113.817  0.00  0.00     0.011 A 
ATOM     16  C3   11 d          -8.606 209.200 114.909  0.00  0.00     0.018 A 
ATOM     17  C4   11 d          -7.290 209.683 114.829  0.00  0.00     0.037 A 
ATOM     18  C5   11 d          -6.549 209.522 113.650  0.00  0.00     0.068 A 
ATOM     19  C7   11 d          -7.107 208.820 112.573  0.00  0.00     0.037 A 
ATOM     20  C8   11 d          -8.423 208.338 112.646  0.00  0.00     0.018 A 
BRANCH  18  21
ATOM     21  O1   11 d          -5.192 209.937 113.601  0.00  0.00    -0.356 OA
ATOM     22  C6   11 d          -4.535 209.594 114.847  0.00  0.00     0.210 C 
ENDBRANCH  18  21
ENDBRANCH  13  15
ENDBRANCH  12  13
ENDBRANCH   1  12
TORSDOF 4
ENDMDL
MODEL 2
REMARK VINA RESULT:      -8.7      1.494      2.620
REMARK  4 active torsions:
REMARK  status: ('A' for Active; 'I' for Inactive)
REMARK    1  A    between atoms: C1_1  and  C2_2 
REMARK    2  A    between atoms: C1_1  and  C9_11 
REMARK    3  A    between atoms: C5_5  and  O1_6 
REMARK    4  A    between atoms: C9_11  and  N1_12 
ROOT
ATOM      1  N1   11 d         -12.106 206.472 112.406  0.00  0.00    -0.349 N 
ATOM      2  C10  11 d         -13.488 206.473 112.181  0.00  0.00     0.044 A 
ATOM      3  C11  11 d         -14.389 206.230 113.260  0.00  0.00    -0.009 A 
ATOM      4  C12  11 d         -15.782 206.228 113.055  0.00  0.00     0.020 A 
ATOM      5  C13  11 d         -16.319 206.437 111.775  0.00  0.00    -0.061 A 
ATOM      6  C14  11 d         -15.449 206.715 110.711  0.00  0.00     0.009 A 
ATOM      7  C15  11 d         -14.061 206.718 110.903  0.00  0.00     0.031 A 
ATOM      8  C16  11 d         -17.808 206.536 111.581  0.00  0.00     0.048 C 
ATOM      9  C17  11 d         -13.880 205.996 114.544  0.00  0.00     0.015 A 
ATOM     10  C18  11 d         -12.505 206.000 114.754  0.00  0.00     0.018 A 
ATOM     11  C19  11 d         -11.638 206.238 113.685  0.00  0.00     0.092 A 
ENDROOT
BRANCH   1  12
ATOM     12  C9   11 d         -11.177 206.723 111.258  0.00  0.00     0.212 C 
BRANCH  12  13
ATOM     13  C1   11 d         -10.387 208.004 110.972  0.00  0.00     0.177 C 
ATOM     14  O2   11 d         -10.551 208.649 109.907  0.00  0.00    -0.291 OA
BRANCH  13  15
ATOM     15  C2   11 d          -9.383 208.518 111.966  0.00  0.00     0.011 A 
ATOM     16  C3   11 d          -9.828 209.116 113.169  0.00  0.00     0.018 A 
ATOM     17  C4   11 d          -8.911 209.604 114.113  0.00  0.00     0.037 A 
ATOM     18  C5   11 d          -7.534 209.528 113.865  0.00  0.00     0.068 A 
ATOM     19  C7   11 d          -7.075 208.905 112.697  0.00  0.00     0.037 A 
ATOM     20  C8   11 d          -7.987 208.419 111.748  0.00  0.00     0.018 A 
BRANCH  18  21
ATOM     21  O1   11 d          -6.608 209.948 114.857  0.00  0.00    -0.356 OA
ATOM     22  C6   11 d          -5.293 210.089 114.264  0.00  0.00     0.210 C 
ENDBRANCH  18  21
ENDBRANCH  13  15
ENDBRANCH  12  13
ENDBRANCH   1  12
TORSDOF 4
ENDMDL
MODEL 3
REMARK VINA RESULT:      -8.5      4.558      7.900
REMARK  4 active torsions:
REMARK  status: ('A' for Active; 'I' for Inactive)
REMARK    1  A    between atoms: C1_1  and  C2_2 
REMARK    2  A    between atoms: C1_1  and  C9_11 
REMARK    3  A    between atoms: C5_5  and  O1_6 
REMARK    4  A    between atoms: C9_11  and  N1_12 
ROOT
ATOM      1  N1   11 d         -14.766 206.345 114.112  0.00  0.00    -0.349 N 
ATOM      2  C10  11 d         -13.827 206.619 113.110  0.00  0.00     0.044 A 
ATOM      3  C11  11 d         -14.199 206.522 111.736  0.00  0.00    -0.009 A 
ATOM      4  C12  11 d         -13.271 206.793 110.713  0.00  0.00     0.020 A 
ATOM      5  C13  11 d         -11.945 207.141 111.020  0.00  0.00    -0.061 A 
ATOM      6  C14  11 d         -11.574 207.279 112.366  0.00  0.00     0.009 A 
ATOM      7  C15  11 d         -12.490 207.008 113.392  0.00  0.00     0.031 A 
ATOM      8  C16  11 d         -10.988 207.531 109.927  0.00  0.00     0.048 C 
ATOM      9  C17  11 d         -15.508 206.155 111.400  0.00  0.00     0.015 A 
ATOM     10  C18  11 d         -16.432 205.887 112.405  0.00  0.00     0.018 A 
ATOM     11  C19  11 d         -16.049 205.987 113.745  0.00  0.00     0.092 A 
ENDROOT
BRANCH   1  12
ATOM     12  C9   11 d         -14.354 206.447 115.548  0.00  0.00     0.212 C 
BRANCH  12  13
ATOM     13  C1   11 d         -13.647 205.376 116.385  0.00  0.00     0.177 C 
ATOM     14  O2   11 d         -12.422 205.138 116.244  0.00  0.00    -0.291 OA
BRANCH  13  15
ATOM     15  C2   11 d         -14.414 204.574 117.400  0.00  0.00     0.011 A 
ATOM     16  C3   11 d         -15.171 203.453 116.985  0.00  0.00     0.018 A 
ATOM     17  C4   11 d         -15.895 202.688 117.912  0.00  0.00     0.037 A 
ATOM     18  C5   11 d         -15.898 203.040 119.269  0.00  0.00     0.068 A 
ATOM     19  C7   11 d         -15.123 204.123 119.703  0.00  0.00     0.037 A 
ATOM     20  C8   11 d         -14.400 204.894 118.780  0.00  0.00     0.018 A 
BRANCH  18  21
ATOM     21  O1   11 d         -16.564 202.217 120.215  0.00  0.00    -0.356 OA
ATOM     22  C6   11 d         -17.557 202.999 120.924  0.00  0.00     0.210 C 
ENDBRANCH  18  21
ENDBRANCH  13  15
ENDBRANCH  12  13
ENDBRANCH   1  12
TORSDOF 4
ENDMDL
MODEL 4
REMARK VINA RESULT:      -8.5      1.936      3.179
REMARK  4 active torsions:
REMARK  status: ('A' for Active; 'I' for Inactive)
REMARK    1  A    between atoms: C1_1  and  C2_2 
REMARK    2  A    between atoms: C1_1  and  C9_11 
REMARK    3  A    between atoms: C5_5  and  O1_6 
REMARK    4  A    between atoms: C9_11  and  N1_12 
ROOT
ATOM      1  N1   11 d         -13.137 206.588 111.430  0.00  0.00    -0.349 N 
ATOM      2  C10  11 d         -13.445 206.305 112.766  0.00  0.00     0.044 A 
ATOM      3  C11  11 d         -14.803 206.318 113.204  0.00  0.00    -0.009 A 
ATOM      4  C12  11 d         -15.135 206.035 114.543  0.00  0.00     0.020 A 
ATOM      5  C13  11 d         -14.133 205.758 115.488  0.00  0.00    -0.061 A 
ATOM      6  C14  11 d         -12.797 205.704 115.064  0.00  0.00     0.009 A 
ATOM      7  C15  11 d         -12.455 205.987 113.735  0.00  0.00     0.031 A 
ATOM      8  C16  11 d         -14.500 205.355 116.890  0.00  0.00     0.048 C 
ATOM      9  C17  11 d         -15.820 206.612 112.289  0.00  0.00     0.015 A 
ATOM     10  C18  11 d         -15.500 206.890 110.964  0.00  0.00     0.018 A 
ATOM     11  C19  11 d         -14.165 206.874 110.553  0.00  0.00     0.092 A 
ENDROOT
BRANCH   1  12
ATOM     12  C9   11 d         -11.704 206.575 110.991  0.00  0.00     0.212 C 
BRANCH  12  13
ATOM     13  C1   11 d         -10.801 207.788 110.748  0.00  0.00     0.177 C 
ATOM     14  O2   11 d         -10.770 208.369 109.635  0.00  0.00    -0.291 OA
BRANCH  13  15
ATOM     15  C2   11 d          -9.919 208.314 111.847  0.00  0.00     0.011 A 
ATOM     16  C3   11 d          -8.581 208.677 111.561  0.00  0.00     0.018 A 
ATOM     17  C4   11 d          -7.737 209.169 112.569  0.00  0.00     0.037 A 
ATOM     18  C5   11 d          -8.203 209.286 113.886  0.00  0.00     0.068 A 
ATOM     19  C7   11 d          -9.536 208.968 114.178  0.00  0.00     0.037 A 
ATOM     20  C8   11 d         -10.383 208.472 113.175  0.00  0.00     0.018 A 
BRANCH  18  21
ATOM     21  O1   11 d          -7.374 209.862 114.884  0.00  0.00    -0.356 OA
ATOM     22  C6   11 d          -6.019 209.978 114.381  0.00  0.00     0.210 C 
ENDBRANCH  18  21
ENDBRANCH  13  15
ENDBRANCH  12  13
ENDBRANCH   1  12
TORSDOF 4
ENDMDL
MODEL 5
REMARK VINA RESULT:      -8.4      3.339      5.634
REMARK  4 active torsions:
REMARK  status: ('A' for Active; 'I' for Inactive)
REMARK    1  A    between atoms: C1_1  and  C2_2 
REMARK    2  A    between atoms: C1_1  and  C9_11 
REMARK    3  A    between atoms: C5_5  and  O1_6 
REMARK    4  A    between atoms: C9_11  and  N1_12 
ROOT
ATOM      1  N1   11 d         -11.863 207.961 113.573  0.00  0.00    -0.349 N 
ATOM      2  C10  11 d         -13.125 207.487 113.195  0.00  0.00     0.044 A 
ATOM      3  C11  11 d         -13.317 206.928 111.896  0.00  0.00    -0.009 A 
ATOM      4  C12  11 d         -14.578 206.444 111.496  0.00  0.00     0.020 A 
ATOM      5  C13  11 d         -15.684 206.524 112.356  0.00  0.00    -0.061 A 
ATOM      6  C14  11 d         -15.502 207.036 113.650  0.00  0.00     0.009 A 
ATOM      7  C15  11 d         -14.253 207.523 114.058  0.00  0.00     0.031 A 
ATOM      8  C16  11 d         -17.001 205.913 111.963  0.00  0.00     0.048 C 
ATOM      9  C17  11 d         -12.237 206.855 111.009  0.00  0.00     0.015 A 
ATOM     10  C18  11 d         -10.988 207.329 111.398  0.00  0.00     0.018 A 
ATOM     11  C19  11 d         -10.818 207.874 112.674  0.00  0.00     0.092 A 
ENDROOT
BRANCH   1  12
ATOM     12  C9   11 d         -11.682 208.550 114.939  0.00  0.00     0.212 C 
BRANCH  12  13
ATOM     13  C1   11 d         -11.249 207.816 116.212  0.00  0.00     0.177 C 
ATOM     14  O2   11 d         -10.107 207.983 116.708  0.00  0.00    -0.291 OA
BRANCH  13  15
ATOM     15  C2   11 d         -12.188 206.864 116.900  0.00  0.00     0.011 A 
ATOM     16  C3   11 d         -12.975 207.314 117.986  0.00  0.00     0.018 A 
ATOM     17  C4   11 d         -13.859 206.446 118.645  0.00  0.00     0.037 A 
ATOM     18  C5   11 d         -13.958 205.105 118.250  0.00  0.00     0.068 A 
ATOM     19  C7   11 d         -13.214 204.651 117.152  0.00  0.00     0.037 A 
ATOM     20  C8   11 d         -12.326 205.515 116.492  0.00  0.00     0.018 A 
BRANCH  18  21
ATOM     21  O1   11 d         -14.912 204.251 118.863  0.00  0.00    -0.356 OA
ATOM     22  C6   11 d         -15.269 203.185 117.947  0.00  0.00     0.210 C 
ENDBRANCH  18  21
ENDBRANCH  13  15
ENDBRANCH  12  13
ENDBRANCH   1  12
TORSDOF 4
ENDMDL
MODEL 6
REMARK VINA RESULT:      -8.4      2.622      4.559
REMARK  4 active torsions:
REMARK  status: ('A' for Active; 'I' for Inactive)
REMARK    1  A    between atoms: C1_1  and  C2_2 
REMARK    2  A    between atoms: C1_1  and  C9_11 
REMARK    3  A    between atoms: C5_5  and  O1_6 
REMARK    4  A    between atoms: C9_11  and  N1_12 
ROOT
ATOM      1  N1   11 d         -11.954 206.944 111.893  0.00  0.00    -0.349 N 
ATOM      2  C10  11 d         -13.348 206.813 111.850  0.00  0.00     0.044 A 
ATOM      3  C11  11 d         -14.050 207.042 110.630  0.00  0.00    -0.009 A 
ATOM      4  C12  11 d         -15.451 206.914 110.565  0.00  0.00     0.020 A 
ATOM      5  C13  11 d         -16.195 206.583 111.708  0.00  0.00    -0.061 A 
ATOM      6  C14  11 d         -15.516 206.317 112.907  0.00  0.00     0.009 A 
ATOM      7  C15  11 d         -14.122 206.444 112.983  0.00  0.00     0.031 A 
ATOM      8  C16  11 d         -17.677 206.346 111.610  0.00  0.00     0.048 C 
ATOM      9  C17  11 d         -13.335 207.395 109.479  0.00  0.00     0.015 A 
ATOM     10  C18  11 d         -11.951 207.521 109.535  0.00  0.00     0.018 A 
ATOM     11  C19  11 d         -11.280 207.293 110.739  0.00  0.00     0.092 A 
ENDROOT
BRANCH   1  12
ATOM     12  C9   11 d         -11.236 206.705 113.186  0.00  0.00     0.212 C 
BRANCH  12  13
ATOM     13  C1   11 d         -10.900 207.743 114.262  0.00  0.00     0.177 C 
ATOM     14  O2   11 d         -10.054 208.647 114.057  0.00  0.00    -0.291 OA
BRANCH  13  15
ATOM     15  C2   11 d         -11.578 207.697 115.604  0.00  0.00     0.011 A 
ATOM     16  C3   11 d         -12.989 207.612 115.676  0.00  0.00     0.018 A 
ATOM     17  C4   11 d         -13.646 207.569 116.915  0.00  0.00     0.037 A 
ATOM     18  C5   11 d         -12.911 207.633 118.107  0.00  0.00     0.068 A 
ATOM     19  C7   11 d         -11.511 207.678 118.054  0.00  0.00     0.037 A 
ATOM     20  C8   11 d         -10.849 207.726 116.817  0.00  0.00     0.018 A 
BRANCH  18  21
ATOM     21  O1   11 d         -13.571 207.505 119.358  0.00  0.00    -0.356 OA
ATOM     22  C6   11 d         -14.172 206.189 119.456  0.00  0.00     0.210 C 
ENDBRANCH  18  21
ENDBRANCH  13  15
ENDBRANCH  12  13
ENDBRANCH   1  12
TORSDOF 4
ENDMDL
MODEL 7
REMARK VINA RESULT:      -8.3      1.784      3.141
REMARK  4 active torsions:
REMARK  status: ('A' for Active; 'I' for Inactive)
REMARK    1  A    between atoms: C1_1  and  C2_2 
REMARK    2  A    between atoms: C1_1  and  C9_11 
REMARK    3  A    between atoms: C5_5  and  O1_6 
REMARK    4  A    between atoms: C9_11  and  N1_12 
ROOT
ATOM      1  N1   11 d         -10.834 207.961 113.702  0.00  0.00    -0.349 N 
ATOM      2  C10  11 d         -11.924 207.612 112.897  0.00  0.00     0.044 A 
ATOM      3  C11  11 d         -13.249 207.673 113.422  0.00  0.00    -0.009 A 
ATOM      4  C12  11 d         -14.360 207.327 112.629  0.00  0.00     0.020 A 
ATOM      5  C13  11 d         -14.189 206.888 111.306  0.00  0.00    -0.061 A 
ATOM      6  C14  11 d         -12.896 206.860 110.762  0.00  0.00     0.009 A 
ATOM      7  C15  11 d         -11.783 207.199 111.544  0.00  0.00     0.031 A 
ATOM      8  C16  11 d         -15.383 206.620 110.432  0.00  0.00     0.048 C 
ATOM      9  C17  11 d         -13.448 208.086 114.745  0.00  0.00     0.015 A 
ATOM     10  C18  11 d         -12.356 208.432 115.534  0.00  0.00     0.018 A 
ATOM     11  C19  11 d         -11.066 208.365 115.002  0.00  0.00     0.092 A 
ENDROOT
BRANCH   1  12
ATOM     12  C9   11 d          -9.450 207.885 113.133  0.00  0.00     0.212 C 
BRANCH  12  13
ATOM     13  C1   11 d          -8.566 209.057 112.693  0.00  0.00     0.177 C 
ATOM     14  O2   11 d          -9.047 210.051 112.095  0.00  0.00    -0.291 OA
BRANCH  13  15
ATOM     15  C2   11 d          -7.087 209.040 112.966  0.00  0.00     0.011 A 
ATOM     16  C3   11 d          -6.564 209.777 114.055  0.00  0.00     0.018 A 
ATOM     17  C4   11 d          -5.188 209.777 114.331  0.00  0.00     0.037 A 
ATOM     18  C5   11 d          -4.303 209.063 113.511  0.00  0.00     0.068 A 
ATOM     19  C7   11 d          -4.808 208.298 112.452  0.00  0.00     0.037 A 
ATOM     20  C8   11 d          -6.183 208.296 112.170  0.00  0.00     0.018 A 
BRANCH  18  21
ATOM     21  O1   11 d          -2.924 208.999 113.841  0.00  0.00    -0.356 OA
ATOM     22  C6   11 d          -2.225 208.203 112.851  0.00  0.00     0.210 C 
ENDBRANCH  18  21
ENDBRANCH  13  15
ENDBRANCH  12  13
ENDBRANCH   1  12
TORSDOF 4
ENDMDL
MODEL 8
REMARK VINA RESULT:      -8.0      4.597      7.354
REMARK  4 active torsions:
REMARK  status: ('A' for Active; 'I' for Inactive)
REMARK    1  A    between atoms: C1_1  and  C2_2 
REMARK    2  A    between atoms: C1_1  and  C9_11 
REMARK    3  A    between atoms: C5_5  and  O1_6 
REMARK    4  A    between atoms: C9_11  and  N1_12 
ROOT
ATOM      1  N1   11 d         -12.307 207.669 115.469  0.00  0.00    -0.349 N 
ATOM      2  C10  11 d         -12.865 207.022 114.360  0.00  0.00     0.044 A 
ATOM      3  C11  11 d         -12.163 207.001 113.117  0.00  0.00    -0.009 A 
ATOM      4  C12  11 d         -12.706 206.356 111.990  0.00  0.00     0.020 A 
ATOM      5  C13  11 d         -13.965 205.738 112.053  0.00  0.00    -0.061 A 
ATOM      6  C14  11 d         -14.650 205.716 113.277  0.00  0.00     0.009 A 
ATOM      7  C15  11 d         -14.120 206.358 114.405  0.00  0.00     0.031 A 
ATOM      8  C16  11 d         -14.493 204.962 110.877  0.00  0.00     0.048 C 
ATOM      9  C17  11 d         -10.915 207.628 113.019  0.00  0.00     0.015 A 
ATOM     10  C18  11 d         -10.372 208.266 114.130  0.00  0.00     0.018 A 
ATOM     11  C19  11 d         -11.073 208.277 115.338  0.00  0.00     0.092 A 
ENDROOT
BRANCH   1  12
ATOM     12  C9   11 d         -13.062 207.684 116.763  0.00  0.00     0.212 C 
BRANCH  12  13
ATOM     13  C1   11 d         -12.799 206.815 117.997  0.00  0.00     0.177 C 
ATOM     14  O2   11 d         -11.836 207.048 118.769  0.00  0.00    -0.291 OA
BRANCH  13  15
ATOM     15  C2   11 d         -13.693 205.647 118.311  0.00  0.00     0.011 A 
ATOM     16  C3   11 d         -14.280 205.536 119.593  0.00  0.00     0.018 A 
ATOM     17  C4   11 d         -15.118 204.456 119.911  0.00  0.00     0.037 A 
ATOM     18  C5   11 d         -15.368 203.453 118.964  0.00  0.00     0.068 A 
ATOM     19  C7   11 d         -14.826 203.567 117.677  0.00  0.00     0.037 A 
ATOM     20  C8   11 d         -13.984 204.643 117.355  0.00  0.00     0.018 A 
BRANCH  18  21
ATOM     21  O1   11 d         -16.280 202.406 119.261  0.00  0.00    -0.356 OA
ATOM     22  C6   11 d         -16.948 202.687 120.517  0.00  0.00     0.210 C 
ENDBRANCH  18  21
ENDBRANCH  13  15
ENDBRANCH  12  13
ENDBRANCH   1  12
TORSDOF 4
ENDMDL
MODEL 9
REMARK VINA RESULT:      -7.8      2.659      4.064
REMARK  4 active torsions:
REMARK  status: ('A' for Active; 'I' for Inactive)
REMARK    1  A    between atoms: C1_1  and  C2_2 
REMARK    2  A    between atoms: C1_1  and  C9_11 
REMARK    3  A    between atoms: C5_5  and  O1_6 
REMARK    4  A    between atoms: C9_11  and  N1_12 
ROOT
ATOM      1  N1   11 d         -12.808 206.049 113.573  0.00  0.00    -0.349 N 
ATOM      2  C10  11 d         -12.899 206.022 114.970  0.00  0.00     0.044 A 
ATOM      3  C11  11 d         -14.176 205.942 115.601  0.00  0.00    -0.009 A 
ATOM      4  C12  11 d         -14.290 205.912 117.005  0.00  0.00     0.020 A 
ATOM      5  C13  11 d         -13.149 205.987 117.819  0.00  0.00    -0.061 A 
ATOM      6  C14  11 d         -11.884 206.027 117.214  0.00  0.00     0.009 A 
ATOM      7  C15  11 d         -11.759 206.060 115.818  0.00  0.00     0.031 A 
ATOM      8  C16  11 d         -13.269 205.851 119.312  0.00  0.00     0.048 C 
ATOM      9  C17  11 d         -15.333 205.889 114.814  0.00  0.00     0.015 A 
ATOM     10  C18  11 d         -15.228 205.915 113.427  0.00  0.00     0.018 A 
ATOM     11  C19  11 d         -13.969 205.994 112.827  0.00  0.00     0.092 A 
ENDROOT
BRANCH   1  12
ATOM     12  C9   11 d         -11.458 206.139 112.929  0.00  0.00     0.212 C 
BRANCH  12  13
ATOM     13  C1   11 d         -10.867 207.341 112.186  0.00  0.00     0.177 C 
ATOM     14  O2   11 d         -11.252 207.651 111.032  0.00  0.00    -0.291 OA
BRANCH  13  15
ATOM     15  C2   11 d          -9.796 208.181 112.827  0.00  0.00     0.011 A 
ATOM     16  C3   11 d          -9.934 208.588 114.175  0.00  0.00     0.018 A 
ATOM     17  C4   11 d          -8.949 209.372 114.795  0.00  0.00     0.037 A 
ATOM     18  C5   11 d          -7.820 209.787 114.076  0.00  0.00     0.068 A 
ATOM     19  C7   11 d          -7.649 209.361 112.752  0.00  0.00     0.037 A 
ATOM     20  C8   11 d          -8.632 208.580 112.126  0.00  0.00     0.018 A 
BRANCH  18  21
ATOM     21  O1   11 d          -6.787 210.510 114.729  0.00  0.00    -0.356 OA
ATOM     22  C6   11 d          -5.498 209.977 114.335  0.00  0.00     0.210 C 
ENDBRANCH  18  21
ENDBRANCH  13  15
ENDBRANCH  12  13
ENDBRANCH   1  12
TORSDOF 4
ENDMDL
MODEL 10
REMARK VINA RESULT:      -7.8      2.072      2.842
REMARK  4 active torsions:
REMARK  status: ('A' for Active; 'I' for Inactive)
REMARK    1  A    between atoms: C1_1  and  C2_2 
REMARK    2  A    between atoms: C1_1  and  C9_11 
REMARK    3  A    between atoms: C5_5  and  O1_6 
REMARK    4  A    between atoms: C9_11  and  N1_12 
ROOT
ATOM      1  N1   11 d         -10.375 208.550 113.042  0.00  0.00    -0.349 N 
ATOM      2  C10  11 d         -11.462 207.824 113.544  0.00  0.00     0.044 A 
ATOM      3  C11  11 d         -12.207 206.965 112.683  0.00  0.00    -0.009 A 
ATOM      4  C12  11 d         -13.303 206.225 113.168  0.00  0.00     0.020 A 
ATOM      5  C13  11 d         -13.705 206.335 114.509  0.00  0.00    -0.061 A 
ATOM      6  C14  11 d         -12.959 207.145 115.378  0.00  0.00     0.009 A 
ATOM      7  C15  11 d         -11.869 207.888 114.904  0.00  0.00     0.031 A 
ATOM      8  C16  11 d         -14.809 205.465 115.046  0.00  0.00     0.048 C 
ATOM      9  C17  11 d         -11.842 206.854 111.336  0.00  0.00     0.015 A 
ATOM     10  C18  11 d         -10.759 207.579 110.850  0.00  0.00     0.018 A 
ATOM     11  C19  11 d         -10.041 208.416 111.708  0.00  0.00     0.092 A 
ENDROOT
BRANCH   1  12
ATOM     12  C9   11 d          -9.608 209.450 113.962  0.00  0.00     0.212 C 
BRANCH  12  13
ATOM     13  C1   11 d          -8.431 209.065 114.862  0.00  0.00     0.177 C 
ATOM     14  O2   11 d          -8.611 208.655 116.035  0.00  0.00    -0.291 OA
BRANCH  13  15
ATOM     15  C2   11 d          -7.018 209.176 114.359  0.00  0.00     0.011 A 
ATOM     16  C3   11 d          -6.135 210.114 114.944  0.00  0.00     0.018 A 
ATOM     17  C4   11 d          -4.812 210.238 114.492  0.00  0.00     0.037 A 
ATOM     18  C5   11 d          -4.350 209.445 113.432  0.00  0.00     0.068 A 
ATOM     19  C7   11 d          -5.200 208.485 112.867  0.00  0.00     0.037 A 
ATOM     20  C8   11 d          -6.525 208.360 113.312  0.00  0.00     0.018 A 
BRANCH  18  21
ATOM     21  O1   11 d          -2.989 209.514 113.033  0.00  0.00    -0.356 OA
ATOM     22  C6   11 d          -2.825 208.851 111.754  0.00  0.00     0.210 C 
ENDBRANCH  18  21
ENDBRANCH  13  15
ENDBRANCH  12  13
ENDBRANCH   1  12
TORSDOF 4
ENDMDL
