MODEL 1
REMARK VINA RESULT:      -8.7      0.000      0.000
REMARK  1 active torsions:
REMARK  status: ('A' for Active; 'I' for Inactive)
REMARK    1  A    between atoms: C1_1  and  C2_2 
REMARK       I    between atoms: C1_1  and  N1_14 
ROOT
ATOM      1  C2   11 d          -9.096 208.226 112.563  0.00  0.00     0.032 A 
ATOM      2  C3   11 d          -9.859 207.969 113.721  0.00  0.00     0.018 A 
ATOM      3  C4   11 d         -11.193 207.548 113.620  0.00  0.00     0.013 A 
ATOM      4  C5   11 d         -11.805 207.377 112.359  0.00  0.00    -0.026 A 
ATOM      5  C6   11 d         -13.216 206.898 112.251  0.00  0.00    -0.026 A 
ATOM      6  C7   11 d         -13.604 206.029 111.206  0.00  0.00     0.012 A 
ATOM      7  C8   11 d         -14.926 205.568 111.111  0.00  0.00     0.001 A 
ATOM      8  C9   11 d         -15.878 205.965 112.058  0.00  0.00     0.000 A 
ATOM      9  C10  11 d         -15.511 206.827 113.099  0.00  0.00     0.001 A 
ATOM     10  C11  11 d         -14.190 207.291 113.197  0.00  0.00     0.012 A 
ATOM     11  C12  11 d         -11.045 207.658 111.203  0.00  0.00     0.013 A 
ATOM     12  C13  11 d          -9.710 208.077 111.304  0.00  0.00     0.018 A 
ENDROOT
BRANCH   1  13
ATOM     13  C1   11 d          -7.664 208.629 112.677  0.00  0.00     0.253 C 
ATOM     14  N1   11 d          -7.069 208.891 113.940  0.00  0.00    -0.344 N 
ATOM     15  C14  11 d          -6.160 207.896 114.579  0.00  0.00     0.152 C 
ATOM     16  C17  11 d          -7.340 210.173 114.657  0.00  0.00     0.152 C 
ATOM     17  C15  11 d          -4.920 208.616 115.120  0.00  0.00     0.187 C 
ATOM     18  O1   11 d          -5.294 209.745 115.959  0.00  0.00    -0.388 OA
ATOM     19  C16  11 d          -6.026 210.746 115.194  0.00  0.00     0.187 C 
ATOM     20  O2   11 d          -6.944 208.768 111.627  0.00  0.00    -0.267 OA
ENDBRANCH   1  13
TORSDOF 1
ENDMDL
MODEL 2
REMARK VINA RESULT:      -8.7      1.516      2.289
REMARK  1 active torsions:
REMARK  status: ('A' for Active; 'I' for Inactive)
REMARK    1  A    between atoms: C1_1  and  C2_2 
REMARK       I    between atoms: C1_1  and  N1_14 
ROOT
ATOM      1  C2   11 d          -9.243 208.687 114.181  0.00  0.00     0.032 A 
ATOM      2  C3   11 d          -9.328 208.335 112.818  0.00  0.00     0.018 A 
ATOM      3  C4   11 d         -10.519 207.820 112.285  0.00  0.00     0.013 A 
ATOM      4  C5   11 d         -11.657 207.636 113.099  0.00  0.00    -0.026 A 
ATOM      5  C6   11 d         -12.934 207.116 112.524  0.00  0.00    -0.026 A 
ATOM      6  C7   11 d         -14.180 207.600 112.983  0.00  0.00     0.012 A 
ATOM      7  C8   11 d         -15.381 207.123 112.435  0.00  0.00     0.001 A 
ATOM      8  C9   11 d         -15.354 206.158 111.419  0.00  0.00     0.000 A 
ATOM      9  C10  11 d         -14.128 205.668 110.953  0.00  0.00     0.001 A 
ATOM     10  C11  11 d         -12.926 206.142 111.500  0.00  0.00     0.012 A 
ATOM     11  C12  11 d         -11.560 207.966 114.468  0.00  0.00     0.013 A 
ATOM     12  C13  11 d         -10.370 208.483 115.001  0.00  0.00     0.018 A 
ENDROOT
BRANCH   1  13
ATOM     13  C1   11 d          -7.988 209.277 114.731  0.00  0.00     0.253 C 
ATOM     14  N1   11 d          -7.129 208.528 115.578  0.00  0.00    -0.344 N 
ATOM     15  C14  11 d          -5.855 207.951 115.059  0.00  0.00     0.152 C 
ATOM     16  C17  11 d          -7.482 208.301 117.011  0.00  0.00     0.152 C 
ATOM     17  C15  11 d          -4.728 208.227 116.061  0.00  0.00     0.187 C 
ATOM     18  O1   11 d          -5.103 207.802 117.402  0.00  0.00    -0.388 OA
ATOM     19  C16  11 d          -6.253 208.554 117.888  0.00  0.00     0.187 C 
ATOM     20  O2   11 d          -7.671 210.489 114.463  0.00  0.00    -0.267 OA
ENDBRANCH   1  13
TORSDOF 1
ENDMDL
MODEL 3
REMARK VINA RESULT:      -8.7      1.429      2.111
REMARK  1 active torsions:
REMARK  status: ('A' for Active; 'I' for Inactive)
REMARK    1  A    between atoms: C1_1  and  C2_2 
REMARK       I    between atoms: C1_1  and  N1_14 
ROOT
ATOM      1  C2   11 d          -8.259 209.038 113.921  0.00  0.00     0.032 A 
ATOM      2  C3   11 d          -9.260 208.811 114.889  0.00  0.00     0.018 A 
ATOM      3  C4   11 d         -10.515 208.310 114.515  0.00  0.00     0.013 A 
ATOM      4  C5   11 d         -10.809 208.026 113.164  0.00  0.00    -0.026 A 
ATOM      5  C6   11 d         -12.135 207.463 112.770  0.00  0.00    -0.026 A 
ATOM      6  C7   11 d         -12.234 206.511 111.730  0.00  0.00     0.012 A 
ATOM      7  C8   11 d         -13.478 205.971 111.368  0.00  0.00     0.001 A 
ATOM      8  C9   11 d         -14.640 206.372 112.040  0.00  0.00     0.000 A 
ATOM      9  C10  11 d         -14.560 207.316 113.071  0.00  0.00     0.001 A 
ATOM     10  C11  11 d         -13.318 207.858 113.435  0.00  0.00     0.012 A 
ATOM     11  C12  11 d          -9.813 208.278 112.195  0.00  0.00     0.013 A 
ATOM     12  C13  11 d          -8.557 208.778 112.570  0.00  0.00     0.018 A 
ENDROOT
BRANCH   1  13
ATOM     13  C1   11 d          -6.911 209.528 114.332  0.00  0.00     0.253 C 
ATOM     14  N1   11 d          -5.772 208.681 114.285  0.00  0.00    -0.344 N 
ATOM     15  C14  11 d          -4.765 208.811 113.192  0.00  0.00     0.152 C 
ATOM     16  C17  11 d          -5.555 207.639 115.333  0.00  0.00     0.152 C 
ATOM     17  C15  11 d          -3.356 208.773 113.793  0.00  0.00     0.187 C 
ATOM     18  O1   11 d          -3.187 207.615 114.660  0.00  0.00    -0.388 OA
ATOM     19  C16  11 d          -4.097 207.674 115.796  0.00  0.00     0.187 C 
ATOM     20  O2   11 d          -6.759 210.726 114.757  0.00  0.00    -0.267 OA
ENDBRANCH   1  13
TORSDOF 1
ENDMDL
MODEL 4
REMARK VINA RESULT:      -8.3      5.424      7.398
REMARK  1 active torsions:
REMARK  status: ('A' for Active; 'I' for Inactive)
REMARK    1  A    between atoms: C1_1  and  C2_2 
REMARK       I    between atoms: C1_1  and  N1_14 
ROOT
ATOM      1  C2   11 d         -12.096 206.445 117.266  0.00  0.00     0.032 A 
ATOM      2  C3   11 d         -12.251 205.480 116.250  0.00  0.00     0.018 A 
ATOM      3  C4   11 d         -11.955 205.793 114.915  0.00  0.00     0.013 A 
ATOM      4  C5   11 d         -11.503 207.080 114.556  0.00  0.00    -0.026 A 
ATOM      5  C6   11 d         -11.159 207.404 113.139  0.00  0.00    -0.026 A 
ATOM      6  C7   11 d         -10.077 208.262 112.837  0.00  0.00     0.012 A 
ATOM      7  C8   11 d          -9.744 208.557 111.506  0.00  0.00     0.001 A 
ATOM      8  C9   11 d         -10.484 207.996 110.457  0.00  0.00     0.000 A 
ATOM      9  C10  11 d         -11.560 207.145 110.738  0.00  0.00     0.001 A 
ATOM     10  C11  11 d         -11.896 206.849 112.068  0.00  0.00     0.012 A 
ATOM     11  C12  11 d         -11.372 208.051 115.572  0.00  0.00     0.013 A 
ATOM     12  C13  11 d         -11.666 207.738 116.908  0.00  0.00     0.018 A 
ENDROOT
BRANCH   1  13
ATOM     13  C1   11 d         -12.367 206.092 118.690  0.00  0.00     0.253 C 
ATOM     14  N1   11 d         -13.694 205.967 119.179  0.00  0.00    -0.344 N 
ATOM     15  C14  11 d         -14.301 204.624 119.414  0.00  0.00     0.152 C 
ATOM     16  C17  11 d         -14.515 207.180 119.472  0.00  0.00     0.152 C 
ATOM     17  C15  11 d         -15.012 204.619 120.772  0.00  0.00     0.187 C 
ATOM     18  O1   11 d         -15.929 205.744 120.887  0.00  0.00    -0.388 OA
ATOM     19  C16  11 d         -15.214 207.012 120.824  0.00  0.00     0.187 C 
ATOM     20  O2   11 d         -11.399 205.914 119.509  0.00  0.00    -0.267 OA
ENDBRANCH   1  13
TORSDOF 1
ENDMDL
MODEL 5
REMARK VINA RESULT:      -8.1      5.504      7.221
REMARK  1 active torsions:
REMARK  status: ('A' for Active; 'I' for Inactive)
REMARK    1  A    between atoms: C1_1  and  C2_2 
REMARK       I    between atoms: C1_1  and  N1_14 
ROOT
ATOM      1  C2   11 d         -13.393 205.809 116.557  0.00  0.00     0.032 A 
ATOM      2  C3   11 d         -12.527 206.576 115.750  0.00  0.00     0.018 A 
ATOM      3  C4   11 d         -12.832 206.817 114.403  0.00  0.00     0.013 A 
ATOM      4  C5   11 d         -14.007 206.296 113.821  0.00  0.00    -0.026 A 
ATOM      5  C6   11 d         -14.347 206.579 112.394  0.00  0.00    -0.026 A 
ATOM      6  C7   11 d         -15.689 206.779 111.999  0.00  0.00     0.012 A 
ATOM      7  C8   11 d         -16.009 207.058 110.662  0.00  0.00     0.001 A 
ATOM      8  C9   11 d         -14.993 207.145 109.700  0.00  0.00     0.000 A 
ATOM      9  C10  11 d         -13.658 206.949 110.075  0.00  0.00     0.001 A 
ATOM     10  C11  11 d         -13.335 206.668 111.411  0.00  0.00     0.012 A 
ATOM     11  C12  11 d         -14.859 205.508 114.625  0.00  0.00     0.013 A 
ATOM     12  C13  11 d         -14.555 205.268 115.974  0.00  0.00     0.018 A 
ENDROOT
BRANCH   1  13
ATOM     13  C1   11 d         -13.086 205.595 118.001  0.00  0.00     0.253 C 
ATOM     14  N1   11 d         -14.113 205.582 118.981  0.00  0.00    -0.344 N 
ATOM     15  C14  11 d         -14.597 204.298 119.567  0.00  0.00     0.152 C 
ATOM     16  C17  11 d         -14.734 206.857 119.449  0.00  0.00     0.152 C 
ATOM     17  C15  11 d         -14.716 204.447 121.088  0.00  0.00     0.187 C 
ATOM     18  O1   11 d         -15.496 205.625 121.439  0.00  0.00    -0.388 OA
ATOM     19  C16  11 d         -14.845 206.843 120.976  0.00  0.00     0.187 C 
ATOM     20  O2   11 d         -11.875 205.437 118.390  0.00  0.00    -0.267 OA
ENDBRANCH   1  13
TORSDOF 1
ENDMDL
MODEL 6
REMARK VINA RESULT:      -8.1      3.176      7.825
REMARK  1 active torsions:
REMARK  status: ('A' for Active; 'I' for Inactive)
REMARK    1  A    between atoms: C1_1  and  C2_2 
REMARK       I    between atoms: C1_1  and  N1_14 
ROOT
ATOM      1  C2   11 d         -11.156 207.774 111.898  0.00  0.00     0.032 A 
ATOM      2  C3   11 d          -9.896 208.185 111.417  0.00  0.00     0.018 A 
ATOM      3  C4   11 d          -8.894 208.606 112.305  0.00  0.00     0.013 A 
ATOM      4  C5   11 d          -9.125 208.633 113.697  0.00  0.00    -0.026 A 
ATOM      5  C6   11 d          -8.048 209.052 114.644  0.00  0.00    -0.026 A 
ATOM      6  C7   11 d          -7.911 208.423 115.903  0.00  0.00     0.012 A 
ATOM      7  C8   11 d          -6.891 208.806 116.788  0.00  0.00     0.001 A 
ATOM      8  C9   11 d          -5.992 209.819 116.429  0.00  0.00     0.000 A 
ATOM      9  C10  11 d          -6.115 210.453 115.185  0.00  0.00     0.001 A 
ATOM     10  C11  11 d          -7.134 210.073 114.298  0.00  0.00     0.012 A 
ATOM     11  C12  11 d         -10.396 208.245 114.172  0.00  0.00     0.013 A 
ATOM     12  C13  11 d         -11.397 207.822 113.285  0.00  0.00     0.018 A 
ENDROOT
BRANCH   1  13
ATOM     13  C1   11 d         -12.201 207.285 110.953  0.00  0.00     0.253 C 
ATOM     14  N1   11 d         -13.432 206.756 111.422  0.00  0.00    -0.344 N 
ATOM     15  C14  11 d         -14.686 207.563 111.360  0.00  0.00     0.152 C 
ATOM     16  C17  11 d         -13.501 205.376 111.989  0.00  0.00     0.152 C 
ATOM     17  C15  11 d         -15.824 206.691 110.819  0.00  0.00     0.187 C 
ATOM     18  O1   11 d         -15.925 205.442 111.560  0.00  0.00    -0.388 OA
ATOM     19  C16  11 d         -14.715 204.644 111.410  0.00  0.00     0.187 C 
ATOM     20  O2   11 d         -11.996 207.314 109.688  0.00  0.00    -0.267 OA
ENDBRANCH   1  13
TORSDOF 1
ENDMDL
MODEL 7
REMARK VINA RESULT:      -8.0      4.262      5.207
REMARK  1 active torsions:
REMARK  status: ('A' for Active; 'I' for Inactive)
REMARK    1  A    between atoms: C1_1  and  C2_2 
REMARK       I    between atoms: C1_1  and  N1_14 
ROOT
ATOM      1  C2   11 d         -12.941 207.492 116.611  0.00  0.00     0.032 A 
ATOM      2  C3   11 d         -12.337 208.157 115.525  0.00  0.00     0.018 A 
ATOM      3  C4   11 d         -12.831 207.993 114.222  0.00  0.00     0.013 A 
ATOM      4  C5   11 d         -13.937 207.155 113.967  0.00  0.00    -0.026 A 
ATOM      5  C6   11 d         -14.482 207.005 112.584  0.00  0.00    -0.026 A 
ATOM      6  C7   11 d         -15.873 206.875 112.367  0.00  0.00     0.012 A 
ATOM      7  C8   11 d         -16.387 206.747 111.068  0.00  0.00     0.001 A 
ATOM      8  C9   11 d         -15.521 206.750 109.966  0.00  0.00     0.000 A 
ATOM      9  C10  11 d         -14.140 206.876 110.164  0.00  0.00     0.001 A 
ATOM     10  C11  11 d         -13.623 207.003 111.462  0.00  0.00     0.012 A 
ATOM     11  C12  11 d         -14.524 206.472 115.054  0.00  0.00     0.013 A 
ATOM     12  C13  11 d         -14.032 206.638 116.357  0.00  0.00     0.018 A 
ENDROOT
BRANCH   1  13
ATOM     13  C1   11 d         -12.440 207.707 118.000  0.00  0.00     0.253 C 
ATOM     14  N1   11 d         -11.071 207.525 118.328  0.00  0.00    -0.344 N 
ATOM     15  C14  11 d         -10.167 208.696 118.522  0.00  0.00     0.152 C 
ATOM     16  C17  11 d         -10.502 206.153 118.488  0.00  0.00     0.152 C 
ATOM     17  C15  11 d          -9.322 208.483 119.782  0.00  0.00     0.187 C 
ATOM     18  O1   11 d          -8.661 207.185 119.756  0.00  0.00    -0.388 OA
ATOM     19  C16  11 d          -9.635 206.102 119.749  0.00  0.00     0.187 C 
ATOM     20  O2   11 d         -13.248 208.044 118.936  0.00  0.00    -0.267 OA
ENDBRANCH   1  13
TORSDOF 1
ENDMDL
MODEL 8
REMARK VINA RESULT:      -8.0      3.292      7.863
REMARK  1 active torsions:
REMARK  status: ('A' for Active; 'I' for Inactive)
REMARK    1  A    between atoms: C1_1  and  C2_2 
REMARK       I    between atoms: C1_1  and  N1_14 
ROOT
ATOM      1  C2   11 d         -11.672 208.134 113.853  0.00  0.00     0.032 A 
ATOM      2  C3   11 d         -11.393 208.425 115.204  0.00  0.00     0.018 A 
ATOM      3  C4   11 d         -10.088 208.739 115.612  0.00  0.00     0.013 A 
ATOM      4  C5   11 d          -9.025 208.766 114.684  0.00  0.00    -0.026 A 
ATOM      5  C6   11 d          -7.642 209.130 115.114  0.00  0.00    -0.026 A 
ATOM      6  C7   11 d          -6.798 209.884 114.266  0.00  0.00     0.012 A 
ATOM      7  C8   11 d          -5.503 210.239 114.673  0.00  0.00     0.001 A 
ATOM      8  C9   11 d          -5.032 209.849 115.934  0.00  0.00     0.000 A 
ATOM      9  C10  11 d          -5.855 209.101 116.786  0.00  0.00     0.001 A 
ATOM     10  C11  11 d          -7.150 208.744 116.381  0.00  0.00     0.012 A 
ATOM     11  C12  11 d          -9.305 208.450 113.337  0.00  0.00     0.013 A 
ATOM     12  C13  11 d         -10.610 208.138 112.928  0.00  0.00     0.018 A 
ENDROOT
BRANCH   1  13
ATOM     13  C1   11 d         -13.070 207.847 113.417  0.00  0.00     0.253 C 
ATOM     14  N1   11 d         -13.356 206.809 112.491  0.00  0.00    -0.344 N 
ATOM     15  C14  11 d         -13.928 205.509 112.950  0.00  0.00     0.152 C 
ATOM     16  C17  11 d         -13.092 206.995 111.033  0.00  0.00     0.152 C 
ATOM     17  C15  11 d         -15.077 205.104 112.020  0.00  0.00     0.187 C 
ATOM     18  O1   11 d         -14.662 205.143 110.626  0.00  0.00    -0.388 OA
ATOM     19  C16  11 d         -14.292 206.495 110.226  0.00  0.00     0.187 C 
ATOM     20  O2   11 d         -14.045 208.551 113.859  0.00  0.00    -0.267 OA
ENDBRANCH   1  13
TORSDOF 1
ENDMDL
MODEL 9
REMARK VINA RESULT:      -7.8      3.885      4.999
REMARK  1 active torsions:
REMARK  status: ('A' for Active; 'I' for Inactive)
REMARK    1  A    between atoms: C1_1  and  C2_2 
REMARK       I    between atoms: C1_1  and  N1_14 
ROOT
ATOM      1  C2   11 d         -10.797 207.336 116.711  0.00  0.00     0.032 A 
ATOM      2  C3   11 d         -10.271 208.390 115.936  0.00  0.00     0.018 A 
ATOM      3  C4   11 d         -10.448 208.411 114.544  0.00  0.00     0.013 A 
ATOM      4  C5   11 d         -11.150 207.378 113.887  0.00  0.00    -0.026 A 
ATOM      5  C6   11 d         -11.364 207.416 112.409  0.00  0.00    -0.026 A 
ATOM      6  C7   11 d         -12.572 206.948 111.844  0.00  0.00     0.012 A 
ATOM      7  C8   11 d         -12.781 206.996 110.457  0.00  0.00     0.001 A 
ATOM      8  C9   11 d         -11.788 207.515 109.615  0.00  0.00     0.000 A 
ATOM      9  C10  11 d         -10.585 207.983 110.159  0.00  0.00     0.001 A 
ATOM     10  C11  11 d         -10.373 207.935 111.545  0.00  0.00     0.012 A 
ATOM     11  C12  11 d         -11.653 206.312 114.664  0.00  0.00     0.013 A 
ATOM     12  C13  11 d         -11.479 206.292 116.056  0.00  0.00     0.018 A 
ENDROOT
BRANCH   1  13
ATOM     13  C1   11 d         -10.646 207.343 118.195  0.00  0.00     0.253 C 
ATOM     14  N1   11 d          -9.402 207.643 118.809  0.00  0.00    -0.344 N 
ATOM     15  C14  11 d          -9.157 208.976 119.433  0.00  0.00     0.152 C 
ATOM     16  C17  11 d          -8.306 206.629 118.844  0.00  0.00     0.152 C 
ATOM     17  C15  11 d          -8.491 208.782 120.800  0.00  0.00     0.187 C 
ATOM     18  O1   11 d          -7.322 207.921 120.695  0.00  0.00    -0.388 OA
ATOM     19  C16  11 d          -7.693 206.585 120.247  0.00  0.00     0.187 C 
ATOM     20  O2   11 d         -11.641 207.055 118.949  0.00  0.00    -0.267 OA
ENDBRANCH   1  13
TORSDOF 1
ENDMDL
MODEL 10
REMARK VINA RESULT:      -7.8      4.227      5.009
REMARK  1 active torsions:
REMARK  status: ('A' for Active; 'I' for Inactive)
REMARK    1  A    between atoms: C1_1  and  C2_2 
REMARK       I    between atoms: C1_1  and  N1_14 
ROOT
ATOM      1  C2   11 d         -11.111 207.801 116.911  0.00  0.00     0.032 A 
ATOM      2  C3   11 d         -12.406 207.252 116.805  0.00  0.00     0.018 A 
ATOM      3  C4   11 d         -13.019 207.103 115.552  0.00  0.00     0.013 A 
ATOM      4  C5   11 d         -12.360 207.504 114.371  0.00  0.00    -0.026 A 
ATOM      5  C6   11 d         -13.001 207.316 113.034  0.00  0.00    -0.026 A 
ATOM      6  C7   11 d         -12.226 206.964 111.906  0.00  0.00     0.012 A 
ATOM      7  C8   11 d         -12.828 206.774 110.653  0.00  0.00     0.001 A 
ATOM      8  C9   11 d         -14.213 206.931 110.508  0.00  0.00     0.000 A 
ATOM      9  C10  11 d         -14.995 207.282 111.616  0.00  0.00     0.001 A 
ATOM     10  C11  11 d         -14.396 207.473 112.870  0.00  0.00     0.012 A 
ATOM     11  C12  11 d         -11.074 208.075 114.483  0.00  0.00     0.013 A 
ATOM     12  C13  11 d         -10.459 208.222 115.735  0.00  0.00     0.018 A 
ENDROOT
BRANCH   1  13
ATOM     13  C1   11 d         -10.446 207.914 118.241  0.00  0.00     0.253 C 
ATOM     14  N1   11 d          -9.897 206.778 118.891  0.00  0.00    -0.344 N 
ATOM     15  C14  11 d          -8.423 206.542 118.907  0.00  0.00     0.152 C 
ATOM     16  C17  11 d         -10.783 205.790 119.577  0.00  0.00     0.152 C 
ATOM     17  C15  11 d          -7.988 206.145 120.322  0.00  0.00     0.187 C 
ATOM     18  O1   11 d          -8.798 205.049 120.831  0.00  0.00    -0.388 OA
ATOM     19  C16  11 d         -10.197 205.440 120.947  0.00  0.00     0.187 C 
ATOM     20  O2   11 d         -10.377 209.046 118.837  0.00  0.00    -0.267 OA
ENDBRANCH   1  13
TORSDOF 1
ENDMDL
MODEL 11
REMARK VINA RESULT:      -7.6      3.467      4.279
REMARK  1 active torsions:
REMARK  status: ('A' for Active; 'I' for Inactive)
REMARK    1  A    between atoms: C1_1  and  C2_2 
REMARK       I    between atoms: C1_1  and  N1_14 
ROOT
ATOM      1  C2   11 d         -11.763 206.853 116.415  0.00  0.00     0.032 A 
ATOM      2  C3   11 d         -12.984 206.159 116.289  0.00  0.00     0.018 A 
ATOM      3  C4   11 d         -13.702 206.189 115.084  0.00  0.00     0.013 A 
ATOM      4  C5   11 d         -13.225 206.918 113.974  0.00  0.00    -0.026 A 
ATOM      5  C6   11 d         -13.974 206.924 112.682  0.00  0.00    -0.026 A 
ATOM      6  C7   11 d         -13.284 206.929 111.449  0.00  0.00     0.012 A 
ATOM      7  C8   11 d         -13.986 206.922 110.234  0.00  0.00     0.001 A 
ATOM      8  C9   11 d         -15.388 206.906 110.233  0.00  0.00     0.000 A 
ATOM      9  C10  11 d         -16.087 206.902 111.446  0.00  0.00     0.001 A 
ATOM     10  C11  11 d         -15.387 206.911 112.663  0.00  0.00     0.012 A 
ATOM     11  C12  11 d         -12.014 207.631 114.112  0.00  0.00     0.013 A 
ATOM     12  C13  11 d         -11.295 207.599 115.316  0.00  0.00     0.018 A 
ENDROOT
BRANCH   1  13
ATOM     13  C1   11 d         -10.981 206.779 117.684  0.00  0.00     0.253 C 
ATOM     14  N1   11 d          -9.898 207.661 117.936  0.00  0.00    -0.344 N 
ATOM     15  C14  11 d         -10.052 208.818 118.866  0.00  0.00     0.152 C 
ATOM     16  C17  11 d          -8.575 207.451 117.276  0.00  0.00     0.152 C 
ATOM     17  C15  11 d          -8.839 208.885 119.799  0.00  0.00     0.187 C 
ATOM     18  O1   11 d          -7.595 208.857 119.043  0.00  0.00    -0.388 OA
ATOM     19  C16  11 d          -7.456 207.606 118.309  0.00  0.00     0.187 C 
ATOM     20  O2   11 d         -11.263 205.896 118.568  0.00  0.00    -0.267 OA
ENDBRANCH   1  13
TORSDOF 1
ENDMDL
MODEL 12
REMARK VINA RESULT:      -7.4      6.817      8.705
REMARK  1 active torsions:
REMARK  status: ('A' for Active; 'I' for Inactive)
REMARK    1  A    between atoms: C1_1  and  C2_2 
REMARK       I    between atoms: C1_1  and  N1_14 
ROOT
ATOM      1  C2   11 d         -13.773 205.818 118.615  0.00  0.00     0.032 A 
ATOM      2  C3   11 d         -14.146 204.777 117.740  0.00  0.00     0.018 A 
ATOM      3  C4   11 d         -13.991 204.917 116.353  0.00  0.00     0.013 A 
ATOM      4  C5   11 d         -13.464 206.104 115.800  0.00  0.00    -0.026 A 
ATOM      5  C6   11 d         -13.270 206.241 114.325  0.00  0.00    -0.026 A 
ATOM      6  C7   11 d         -12.156 206.940 113.807  0.00  0.00     0.012 A 
ATOM      7  C8   11 d         -11.965 207.059 112.422  0.00  0.00     0.001 A 
ATOM      8  C9   11 d         -12.881 206.479 111.534  0.00  0.00     0.000 A 
ATOM      9  C10  11 d         -13.990 205.783 112.031  0.00  0.00     0.001 A 
ATOM     10  C11  11 d         -14.185 205.664 113.416  0.00  0.00     0.012 A 
ATOM     11  C12  11 d         -13.115 207.154 116.677  0.00  0.00     0.013 A 
ATOM     12  C13  11 d         -13.268 207.012 118.064  0.00  0.00     0.018 A 
ENDROOT
BRANCH   1  13
ATOM     13  C1   11 d         -13.899 205.645 120.091  0.00  0.00     0.253 C 
ATOM     14  N1   11 d         -15.126 205.252 120.687  0.00  0.00    -0.344 N 
ATOM     15  C14  11 d         -15.332 203.854 121.165  0.00  0.00     0.152 C 
ATOM     16  C17  11 d         -16.240 206.232 120.852  0.00  0.00     0.152 C 
ATOM     17  C15  11 d         -15.978 203.882 122.554  0.00  0.00     0.187 C 
ATOM     18  O1   11 d         -17.165 204.724 122.563  0.00  0.00    -0.388 OA
ATOM     19  C16  11 d         -16.828 206.108 122.260  0.00  0.00     0.187 C 
ATOM     20  O2   11 d         -12.896 205.869 120.857  0.00  0.00    -0.267 OA
ENDBRANCH   1  13
TORSDOF 1
ENDMDL
MODEL 13
REMARK VINA RESULT:      -7.3      3.320      4.226
REMARK  1 active torsions:
REMARK  status: ('A' for Active; 'I' for Inactive)
REMARK    1  A    between atoms: C1_1  and  C2_2 
REMARK       I    between atoms: C1_1  and  N1_14 
ROOT
ATOM      1  C2   11 d          -9.993 207.931 117.088  0.00  0.00     0.032 A 
ATOM      2  C3   11 d         -10.876 206.832 117.057  0.00  0.00     0.018 A 
ATOM      3  C4   11 d         -11.577 206.510 115.886  0.00  0.00     0.013 A 
ATOM      4  C5   11 d         -11.420 207.279 114.713  0.00  0.00    -0.026 A 
ATOM      5  C6   11 d         -12.142 206.917 113.456  0.00  0.00    -0.026 A 
ATOM      6  C7   11 d         -11.524 207.083 112.196  0.00  0.00     0.012 A 
ATOM      7  C8   11 d         -12.195 206.731 111.015  0.00  0.00     0.001 A 
ATOM      8  C9   11 d         -13.493 206.205 111.076  0.00  0.00     0.000 A 
ATOM      9  C10  11 d         -14.120 206.034 112.317  0.00  0.00     0.001 A 
ATOM     10  C11  11 d         -13.451 206.387 113.499  0.00  0.00     0.012 A 
ATOM     11  C12  11 d         -10.553 208.393 114.754  0.00  0.00     0.013 A 
ATOM     12  C13  11 d          -9.851 208.714 115.925  0.00  0.00     0.018 A 
ENDROOT
BRANCH   1  13
ATOM     13  C1   11 d          -9.217 208.241 118.323  0.00  0.00     0.253 C 
ATOM     14  N1   11 d          -7.846 207.891 118.441  0.00  0.00    -0.344 N 
ATOM     15  C14  11 d          -6.777 208.922 118.299  0.00  0.00     0.152 C 
ATOM     16  C17  11 d          -7.442 206.479 118.713  0.00  0.00     0.152 C 
ATOM     17  C15  11 d          -5.746 208.742 119.418  0.00  0.00     0.187 C 
ATOM     18  O1   11 d          -5.277 207.365 119.481  0.00  0.00    -0.388 OA
ATOM     19  C16  11 d          -6.368 206.454 119.803  0.00  0.00     0.187 C 
ATOM     20  O2   11 d          -9.784 208.816 119.318  0.00  0.00    -0.267 OA
ENDBRANCH   1  13
TORSDOF 1
ENDMDL
MODEL 14
REMARK VINA RESULT:      -7.1      8.213     10.777
REMARK  1 active torsions:
REMARK  status: ('A' for Active; 'I' for Inactive)
REMARK    1  A    between atoms: C1_1  and  C2_2 
REMARK       I    between atoms: C1_1  and  N1_14 
ROOT
ATOM      1  C2   11 d         -15.903 203.615 119.080  0.00  0.00     0.032 A 
ATOM      2  C3   11 d         -14.872 204.534 119.363  0.00  0.00     0.018 A 
ATOM      3  C4   11 d         -14.093 205.075 118.329  0.00  0.00     0.013 A 
ATOM      4  C5   11 d         -14.318 204.709 116.985  0.00  0.00    -0.026 A 
ATOM      5  C6   11 d         -13.509 205.308 115.881  0.00  0.00    -0.026 A 
ATOM      6  C7   11 d         -14.101 205.605 114.633  0.00  0.00     0.012 A 
ATOM      7  C8   11 d         -13.346 206.180 113.599  0.00  0.00     0.001 A 
ATOM      8  C9   11 d         -11.990 206.471 113.799  0.00  0.00     0.000 A 
ATOM      9  C10  11 d         -11.387 206.182 115.030  0.00  0.00     0.001 A 
ATOM     10  C11  11 d         -12.140 205.606 116.065  0.00  0.00     0.012 A 
ATOM     11  C12  11 d         -15.335 203.769 116.709  0.00  0.00     0.013 A 
ATOM     12  C13  11 d         -16.115 203.230 117.742  0.00  0.00     0.018 A 
ENDROOT
BRANCH   1  13
ATOM     13  C1   11 d         -16.757 203.079 120.180  0.00  0.00     0.253 C 
ATOM     14  N1   11 d         -17.834 203.834 120.713  0.00  0.00    -0.344 N 
ATOM     15  C14  11 d         -19.246 203.519 120.348  0.00  0.00     0.152 C 
ATOM     16  C17  11 d         -17.578 204.964 121.656  0.00  0.00     0.152 C 
ATOM     17  C15  11 d         -20.111 203.523 121.613  0.00  0.00     0.187 C 
ATOM     18  O1   11 d         -19.924 204.751 122.372  0.00  0.00    -0.388 OA
ATOM     19  C16  11 d         -18.549 204.877 122.836  0.00  0.00     0.187 C 
ATOM     20  O2   11 d         -16.519 201.924 120.681  0.00  0.00    -0.267 OA
ENDBRANCH   1  13
TORSDOF 1
ENDMDL
MODEL 15
REMARK VINA RESULT:      -6.9      7.032      8.991
REMARK  1 active torsions:
REMARK  status: ('A' for Active; 'I' for Inactive)
REMARK    1  A    between atoms: C1_1  and  C2_2 
REMARK       I    between atoms: C1_1  and  N1_14 
ROOT
ATOM      1  C2   11 d         -13.945 205.519 118.630  0.00  0.00     0.032 A 
ATOM      2  C3   11 d         -13.655 206.898 118.599  0.00  0.00     0.018 A 
ATOM      3  C4   11 d         -12.858 207.438 117.579  0.00  0.00     0.013 A 
ATOM      4  C5   11 d         -12.323 206.616 116.565  0.00  0.00    -0.026 A 
ATOM      5  C6   11 d         -11.500 207.196 115.462  0.00  0.00    -0.026 A 
ATOM      6  C7   11 d         -11.593 206.685 114.147  0.00  0.00     0.012 A 
ATOM      7  C8   11 d         -10.831 207.238 113.107  0.00  0.00     0.001 A 
ATOM      8  C9   11 d          -9.966 208.310 113.363  0.00  0.00     0.000 A 
ATOM      9  C10  11 d          -9.860 208.827 114.661  0.00  0.00     0.001 A 
ATOM     10  C11  11 d         -10.621 208.276 115.703  0.00  0.00     0.012 A 
ATOM     11  C12  11 d         -12.595 205.231 116.614  0.00  0.00     0.013 A 
ATOM     12  C13  11 d         -13.394 204.691 117.632  0.00  0.00     0.018 A 
ENDROOT
BRANCH   1  13
ATOM     13  C1   11 d         -14.831 204.958 119.691  0.00  0.00     0.253 C 
ATOM     14  N1   11 d         -15.099 205.677 120.886  0.00  0.00    -0.344 N 
ATOM     15  C14  11 d         -16.402 206.375 121.084  0.00  0.00     0.152 C 
ATOM     16  C17  11 d         -14.080 205.750 121.975  0.00  0.00     0.152 C 
ATOM     17  C15  11 d         -16.929 206.078 122.492  0.00  0.00     0.187 C 
ATOM     18  O1   11 d         -15.916 206.356 123.499  0.00  0.00    -0.388 OA
ATOM     19  C16  11 d         -14.754 205.494 123.326  0.00  0.00     0.187 C 
ATOM     20  O2   11 d         -15.355 203.797 119.552  0.00  0.00    -0.267 OA
ENDBRANCH   1  13
TORSDOF 1
ENDMDL
MODEL 16
REMARK VINA RESULT:      -6.8      6.799      8.244
REMARK  1 active torsions:
REMARK  status: ('A' for Active; 'I' for Inactive)
REMARK    1  A    between atoms: C1_1  and  C2_2 
REMARK       I    between atoms: C1_1  and  N1_14 
ROOT
ATOM      1  C2   11 d         -14.195 205.015 118.476  0.00  0.00     0.032 A 
ATOM      2  C3   11 d         -13.370 206.119 118.179  0.00  0.00     0.018 A 
ATOM      3  C4   11 d         -13.041 206.429 116.851  0.00  0.00     0.013 A 
ATOM      4  C5   11 d         -13.523 205.643 115.783  0.00  0.00    -0.026 A 
ATOM      5  C6   11 d         -13.199 205.992 114.367  0.00  0.00    -0.026 A 
ATOM      6  C7   11 d         -14.154 205.804 113.342  0.00  0.00     0.012 A 
ATOM      7  C8   11 d         -13.856 206.144 112.013  0.00  0.00     0.001 A 
ATOM      8  C9   11 d         -12.602 206.680 111.690  0.00  0.00     0.000 A 
ATOM      9  C10  11 d         -11.644 206.871 112.694  0.00  0.00     0.001 A 
ATOM     10  C11  11 d         -11.939 206.531 114.023  0.00  0.00     0.012 A 
ATOM     11  C12  11 d         -14.329 204.524 116.086  0.00  0.00     0.013 A 
ATOM     12  C13  11 d         -14.659 204.215 117.414  0.00  0.00     0.018 A 
ENDROOT
BRANCH   1  13
ATOM     13  C1   11 d         -14.577 204.717 119.887  0.00  0.00     0.253 C 
ATOM     14  N1   11 d         -14.005 205.429 120.973  0.00  0.00    -0.344 N 
ATOM     15  C14  11 d         -14.772 206.496 121.680  0.00  0.00     0.152 C 
ATOM     16  C17  11 d         -12.617 205.125 121.436  0.00  0.00     0.152 C 
ATOM     17  C15  11 d         -14.612 206.318 123.194  0.00  0.00     0.187 C 
ATOM     18  O1   11 d         -13.208 206.213 123.564  0.00  0.00    -0.388 OA
ATOM     19  C16  11 d         -12.594 205.036 122.964  0.00  0.00     0.187 C 
ATOM     20  O2   11 d         -15.423 203.791 120.147  0.00  0.00    -0.267 OA
ENDBRANCH   1  13
TORSDOF 1
ENDMDL
MODEL 17
REMARK VINA RESULT:      -6.5     15.365     18.774
REMARK  1 active torsions:
REMARK  status: ('A' for Active; 'I' for Inactive)
REMARK    1  A    between atoms: C1_1  and  C2_2 
REMARK       I    between atoms: C1_1  and  N1_14 
ROOT
ATOM      1  C2   11 d         -22.394 199.501 123.370  0.00  0.00     0.032 A 
ATOM      2  C3   11 d         -22.610 200.652 124.154  0.00  0.00     0.018 A 
ATOM      3  C4   11 d         -21.969 201.860 123.842  0.00  0.00     0.013 A 
ATOM      4  C5   11 d         -21.090 201.951 122.741  0.00  0.00    -0.026 A 
ATOM      5  C6   11 d         -20.431 203.245 122.391  0.00  0.00    -0.026 A 
ATOM      6  C7   11 d         -20.221 203.605 121.040  0.00  0.00     0.012 A 
ATOM      7  C8   11 d         -19.615 204.826 120.709  0.00  0.00     0.001 A 
ATOM      8  C9   11 d         -19.212 205.707 121.721  0.00  0.00     0.000 A 
ATOM      9  C10  11 d         -19.412 205.366 123.065  0.00  0.00     0.001 A 
ATOM     10  C11  11 d         -20.017 204.145 123.399  0.00  0.00     0.012 A 
ATOM     11  C12  11 d         -20.857 200.789 121.974  0.00  0.00     0.013 A 
ATOM     12  C13  11 d         -21.500 199.582 122.284  0.00  0.00     0.018 A 
ENDROOT
BRANCH   1  13
ATOM     13  C1   11 d         -23.114 198.231 123.679  0.00  0.00     0.253 C 
ATOM     14  N1   11 d         -24.145 197.742 122.835  0.00  0.00    -0.344 N 
ATOM     15  C14  11 d         -23.895 196.605 121.901  0.00  0.00     0.152 C 
ATOM     16  C17  11 d         -25.507 198.355 122.862  0.00  0.00     0.152 C 
ATOM     17  C15  11 d         -25.057 195.610 121.990  0.00  0.00     0.187 C 
ATOM     18  O1   11 d         -26.337 196.283 121.822  0.00  0.00    -0.388 OA
ATOM     19  C16  11 d         -26.566 197.249 122.888  0.00  0.00     0.187 C 
ATOM     20  O2   11 d         -22.827 197.564 124.735  0.00  0.00    -0.267 OA
ENDBRANCH   1  13
TORSDOF 1
ENDMDL
MODEL 18
REMARK VINA RESULT:      -6.5     20.654     21.785
REMARK  1 active torsions:
REMARK  status: ('A' for Active; 'I' for Inactive)
REMARK    1  A    between atoms: C1_1  and  C2_2 
REMARK       I    between atoms: C1_1  and  N1_14 
ROOT
ATOM      1  C2   11 d         -26.394 196.924 103.940  0.00  0.00     0.032 A 
ATOM      2  C3   11 d         -26.057 195.567 104.126  0.00  0.00     0.018 A 
ATOM      3  C4   11 d         -26.020 195.010 105.412  0.00  0.00     0.013 A 
ATOM      4  C5   11 d         -26.312 195.793 106.550  0.00  0.00    -0.026 A 
ATOM      5  C6   11 d         -26.302 195.191 107.917  0.00  0.00    -0.026 A 
ATOM      6  C7   11 d         -27.241 195.601 108.892  0.00  0.00     0.012 A 
ATOM      7  C8   11 d         -27.242 195.027 110.172  0.00  0.00     0.001 A 
ATOM      8  C9   11 d         -26.308 194.034 110.498  0.00  0.00     0.000 A 
ATOM      9  C10  11 d         -25.370 193.618 109.544  0.00  0.00     0.001 A 
ATOM     10  C11  11 d         -25.366 194.190 108.263  0.00  0.00     0.012 A 
ATOM     11  C12  11 d         -26.625 197.156 106.361  0.00  0.00     0.013 A 
ATOM     12  C13  11 d         -26.664 197.713 105.075  0.00  0.00     0.018 A 
ENDROOT
BRANCH   1  13
ATOM     13  C1   11 d         -26.477 197.499 102.566  0.00  0.00     0.253 C 
ATOM     14  N1   11 d         -25.345 198.084 101.940  0.00  0.00    -0.344 N 
ATOM     15  C14  11 d         -24.592 197.352 100.880  0.00  0.00     0.152 C 
ATOM     16  C17  11 d         -24.881 199.449 102.329  0.00  0.00     0.152 C 
ATOM     17  C15  11 d         -24.306 198.303  99.712  0.00  0.00     0.187 C 
ATOM     18  O1   11 d         -23.686 199.534 100.179  0.00  0.00    -0.388 OA
ATOM     19  C16  11 d         -24.576 200.265 101.070  0.00  0.00     0.187 C 
ATOM     20  O2   11 d         -27.588 197.493 101.927  0.00  0.00    -0.267 OA
ENDBRANCH   1  13
TORSDOF 1
ENDMDL
MODEL 19
REMARK VINA RESULT:      -6.4     12.058     14.297
REMARK  1 active torsions:
REMARK  status: ('A' for Active; 'I' for Inactive)
REMARK    1  A    between atoms: C1_1  and  C2_2 
REMARK       I    between atoms: C1_1  and  N1_14 
ROOT
ATOM      1  C2   11 d         -18.771 204.815 123.144  0.00  0.00     0.032 A 
ATOM      2  C3   11 d         -19.051 203.999 122.028  0.00  0.00     0.018 A 
ATOM      3  C4   11 d         -20.023 202.991 122.105  0.00  0.00     0.013 A 
ATOM      4  C5   11 d         -20.738 202.764 123.301  0.00  0.00    -0.026 A 
ATOM      5  C6   11 d         -21.795 201.711 123.373  0.00  0.00    -0.026 A 
ATOM      6  C7   11 d         -22.967 201.917 124.135  0.00  0.00     0.012 A 
ATOM      7  C8   11 d         -23.967 200.934 124.194  0.00  0.00     0.001 A 
ATOM      8  C9   11 d         -23.812 199.733 123.490  0.00  0.00     0.000 A 
ATOM      9  C10  11 d         -22.656 199.512 122.731  0.00  0.00     0.001 A 
ATOM     10  C11  11 d         -21.654 200.492 122.671  0.00  0.00     0.012 A 
ATOM     11  C12  11 d         -20.438 203.567 124.423  0.00  0.00     0.013 A 
ATOM     12  C13  11 d         -19.467 204.577 124.345  0.00  0.00     0.018 A 
ENDROOT
BRANCH   1  13
ATOM     13  C1   11 d         -17.769 205.915 123.042  0.00  0.00     0.253 C 
ATOM     14  N1   11 d         -16.607 205.784 122.237  0.00  0.00    -0.344 N 
ATOM     15  C14  11 d         -16.513 206.460 120.910  0.00  0.00     0.152 C 
ATOM     16  C17  11 d         -15.448 204.964 122.701  0.00  0.00     0.152 C 
ATOM     17  C15  11 d         -15.143 207.133 120.779  0.00  0.00     0.187 C 
ATOM     18  O1   11 d         -14.069 206.197 121.076  0.00  0.00    -0.388 OA
ATOM     19  C16  11 d         -14.146 205.732 122.455  0.00  0.00     0.187 C 
ATOM     20  O2   11 d         -17.930 207.002 123.701  0.00  0.00    -0.267 OA
ENDBRANCH   1  13
TORSDOF 1
ENDMDL
MODEL 20
REMARK VINA RESULT:      -6.2      3.838      4.610
REMARK  1 active torsions:
REMARK  status: ('A' for Active; 'I' for Inactive)
REMARK    1  A    between atoms: C1_1  and  C2_2 
REMARK       I    between atoms: C1_1  and  N1_14 
ROOT
ATOM      1  C2   11 d          -9.311 208.034 116.924  0.00  0.00     0.032 A 
ATOM      2  C3   11 d          -9.379 208.634 115.649  0.00  0.00     0.018 A 
ATOM      3  C4   11 d         -10.501 208.442 114.829  0.00  0.00     0.013 A 
ATOM      4  C5   11 d         -11.583 207.643 115.255  0.00  0.00    -0.026 A 
ATOM      5  C6   11 d         -12.790 207.464 114.394  0.00  0.00    -0.026 A 
ATOM      6  C7   11 d         -14.079 207.385 114.968  0.00  0.00     0.012 A 
ATOM      7  C8   11 d         -15.216 207.231 114.160  0.00  0.00     0.001 A 
ATOM      8  C9   11 d         -15.082 207.157 112.767  0.00  0.00     0.000 A 
ATOM      9  C10  11 d         -13.812 207.233 112.182  0.00  0.00     0.001 A 
ATOM     10  C11  11 d         -12.673 207.386 112.988  0.00  0.00     0.012 A 
ATOM     11  C12  11 d         -11.499 207.025 116.522  0.00  0.00     0.013 A 
ATOM     12  C13  11 d         -10.379 207.218 117.344  0.00  0.00     0.018 A 
ENDROOT
BRANCH   1  13
ATOM     13  C1   11 d          -8.136 208.279 117.810  0.00  0.00     0.253 C 
ATOM     14  N1   11 d          -8.231 208.138 119.219  0.00  0.00    -0.344 N 
ATOM     15  C14  11 d          -7.673 206.939 119.909  0.00  0.00     0.152 C 
ATOM     16  C17  11 d          -8.894 209.191 120.046  0.00  0.00     0.152 C 
ATOM     17  C15  11 d          -6.890 207.385 121.149  0.00  0.00     0.187 C 
ATOM     18  O1   11 d          -7.691 208.266 121.986  0.00  0.00    -0.388 OA
ATOM     19  C16  11 d          -8.035 209.492 121.277  0.00  0.00     0.187 C 
ATOM     20  O2   11 d          -7.013 208.645 117.312  0.00  0.00    -0.267 OA
ENDBRANCH   1  13
TORSDOF 1
ENDMDL
