MODEL 1
REMARK VINA RESULT:     -10.6      0.000      0.000
REMARK  6 active torsions:
REMARK  status: ('A' for Active; 'I' for Inactive)
REMARK    1  A    between atoms: C7_8  and  C8_9 
REMARK       I    between atoms: C8_9  and  N2_11 
REMARK    2  A    between atoms: N2_11  and  C9_12 
REMARK    3  A    between atoms: C12_15  and  C13_16 
REMARK    4  A    between atoms: C22_27  and  C23_28 
REMARK       I    between atoms: C23_28  and  N3_30 
REMARK    5  A    between atoms: N3_30  and  C24_31 
REMARK    6  A    between atoms: C27_34  and  C28_35 
ROOT
ATOM      1  C1   11 d         -10.394 207.912 114.240  0.00  0.00     0.266 A 
ATOM      2  C2   11 d          -9.141 208.627 114.067  0.00  0.00     0.049 A 
ATOM      3  C3   11 d          -8.925 208.781 112.718  0.00  0.00     0.048 A 
ATOM      4  C4   11 d         -10.056 208.144 112.032  0.00  0.00     0.266 A 
ATOM      5  N1   11 d         -10.985 207.591 112.976  0.00  0.00    -0.244 N 
ATOM      6  C5   11 d         -12.259 206.856 112.716  0.00  0.00     0.046 A 
ATOM      7  C6   11 d         -13.057 206.382 113.784  0.00  0.00     0.047 A 
ATOM      8  C7   11 d         -14.263 205.669 113.593  0.00  0.00     0.034 A 
ATOM      9  C17  11 d         -14.682 205.427 112.269  0.00  0.00     0.017 A 
ATOM     10  C18  11 d         -13.914 205.884 111.189  0.00  0.00     0.003 A 
ATOM     11  C19  11 d         -12.722 206.590 111.408  0.00  0.00     0.030 A 
ATOM     12  O3   11 d         -10.170 208.099 110.758  0.00  0.00    -0.267 OA
ATOM     13  C20  11 d          -7.776 209.431 112.252  0.00  0.00     0.019 A 
ATOM     14  C21  11 d          -6.839 209.904 113.198  0.00  0.00     0.018 A 
ATOM     15  C22  11 d          -7.042 209.732 114.599  0.00  0.00     0.033 A 
ATOM     16  C32  11 d          -8.232 209.086 115.022  0.00  0.00     0.035 A 
ATOM     17  O6   11 d         -10.861 207.624 115.395  0.00  0.00    -0.267 OA
ENDROOT
BRANCH   8  18
ATOM     18  C8   11 d         -15.023 205.219 114.815  0.00  0.00     0.256 C 
ATOM     19  O1   11 d         -16.287 205.413 114.823  0.00  0.00    -0.267 OA
ATOM     20  N2   11 d         -14.399 204.594 115.950  0.00  0.00    -0.323 N 
ATOM     21  H2   11 d         -13.341 204.441 115.917  0.00  0.00     0.169 HD
BRANCH  20  22
ATOM     22  C9   11 d         -15.077 204.129 117.188  0.00  0.00     0.035 A 
ATOM     23  C10  11 d         -14.653 204.696 118.407  0.00  0.00     0.030 A 
ATOM     24  C11  11 d         -15.239 204.327 119.628  0.00  0.00     0.017 A 
ATOM     25  C12  11 d         -16.282 203.380 119.672  0.00  0.00     0.009 A 
ATOM     26  C15  11 d         -16.709 202.806 118.459  0.00  0.00     0.017 A 
ATOM     27  C16  11 d         -16.119 203.170 117.242  0.00  0.00     0.030 A 
BRANCH  25  28
ATOM     28  C13  11 d         -16.905 202.993 120.978  0.00  0.00     0.155 C 
ATOM     29  O2   11 d         -16.172 202.636 121.936  0.00  0.00    -0.293 OA
ATOM     30  C14  11 d         -18.387 203.078 121.216  0.00  0.00     0.096 C 
ENDBRANCH  25  28
ENDBRANCH  20  22
ENDBRANCH   8  18
BRANCH  15  31
ATOM     31  C23  11 d          -5.984 210.188 115.573  0.00  0.00     0.256 C 
ATOM     32  O4   11 d          -4.902 210.674 115.093  0.00  0.00    -0.267 OA
ATOM     33  N3   11 d          -6.156 210.090 117.001  0.00  0.00    -0.323 N 
ATOM     34  H15  11 d          -7.072 209.684 117.371  0.00  0.00     0.169 HD
BRANCH  33  35
ATOM     35  C24  11 d          -5.199 210.484 118.060  0.00  0.00     0.035 A 
ATOM     36  C25  11 d          -5.651 211.434 119.000  0.00  0.00     0.030 A 
ATOM     37  C26  11 d          -4.842 211.852 120.063  0.00  0.00     0.017 A 
ATOM     38  C27  11 d          -3.540 211.338 120.223  0.00  0.00     0.009 A 
ATOM     39  C30  11 d          -3.075 210.395 119.282  0.00  0.00     0.017 A 
ATOM     40  C31  11 d          -3.888 209.976 118.216  0.00  0.00     0.030 A 
BRANCH  38  41
ATOM     41  C28  11 d          -2.699 211.782 121.379  0.00  0.00     0.155 C 
ATOM     42  O5   11 d          -2.578 211.034 122.384  0.00  0.00    -0.293 OA
ATOM     43  C29  11 d          -2.081 213.150 121.445  0.00  0.00     0.096 C 
ENDBRANCH  38  41
ENDBRANCH  33  35
ENDBRANCH  15  31
TORSDOF 6
ENDMDL
MODEL 2
REMARK VINA RESULT:     -10.3      1.989     11.508
REMARK  6 active torsions:
REMARK  status: ('A' for Active; 'I' for Inactive)
REMARK    1  A    between atoms: C7_8  and  C8_9 
REMARK       I    between atoms: C8_9  and  N2_11 
REMARK    2  A    between atoms: N2_11  and  C9_12 
REMARK    3  A    between atoms: C12_15  and  C13_16 
REMARK    4  A    between atoms: C22_27  and  C23_28 
REMARK       I    between atoms: C23_28  and  N3_30 
REMARK    5  A    between atoms: N3_30  and  C24_31 
REMARK    6  A    between atoms: C27_34  and  C28_35 
ROOT
ATOM      1  C1   11 d         -11.200 207.103 116.170  0.00  0.00     0.266 A 
ATOM      2  C2   11 d         -12.402 206.313 116.380  0.00  0.00     0.049 A 
ATOM      3  C3   11 d         -12.991 206.105 115.155  0.00  0.00     0.048 A 
ATOM      4  C4   11 d         -12.150 206.783 114.160  0.00  0.00     0.266 A 
ATOM      5  N1   11 d         -11.024 207.416 114.784  0.00  0.00    -0.244 N 
ATOM      6  C5   11 d          -9.928 208.214 114.154  0.00  0.00     0.046 A 
ATOM      7  C6   11 d          -8.886 208.765 114.935  0.00  0.00     0.047 A 
ATOM      8  C7   11 d          -7.834 209.537 114.391  0.00  0.00     0.034 A 
ATOM      9  C17  11 d          -7.835 209.761 112.999  0.00  0.00     0.017 A 
ATOM     10  C18  11 d          -8.853 209.228 112.197  0.00  0.00     0.003 A 
ATOM     11  C19  11 d          -9.883 208.464 112.764  0.00  0.00     0.030 A 
ATOM     12  O3   11 d         -12.414 206.794 112.907  0.00  0.00    -0.267 OA
ATOM     13  C20  11 d         -14.182 205.378 115.054  0.00  0.00     0.019 A 
ATOM     14  C21  11 d         -14.772 204.883 116.238  0.00  0.00     0.018 A 
ATOM     15  C22  11 d         -14.182 205.110 117.517  0.00  0.00     0.033 A 
ATOM     16  C32  11 d         -12.963 205.835 117.564  0.00  0.00     0.035 A 
ATOM     17  O6   11 d         -10.437 207.452 117.134  0.00  0.00    -0.267 OA
ENDROOT
BRANCH   8  18
ATOM     18  C8   11 d          -6.782 210.067 115.332  0.00  0.00     0.256 C 
ATOM     19  O1   11 d          -6.085 211.061 114.930  0.00  0.00    -0.267 OA
ATOM     20  N2   11 d          -6.533 209.512 116.635  0.00  0.00    -0.323 N 
ATOM     21  H2   11 d          -7.131 208.682 116.947  0.00  0.00     0.169 HD
BRANCH  20  22
ATOM     22  C9   11 d          -5.514 209.975 117.613  0.00  0.00     0.035 A 
ATOM     23  C10  11 d          -5.927 210.921 118.574  0.00  0.00     0.030 A 
ATOM     24  C11  11 d          -5.039 211.411 119.545  0.00  0.00     0.017 A 
ATOM     25  C12  11 d          -3.703 210.965 119.594  0.00  0.00     0.009 A 
ATOM     26  C15  11 d          -3.282 210.024 118.635  0.00  0.00     0.017 A 
ATOM     27  C16  11 d          -4.167 209.539 117.663  0.00  0.00     0.030 A 
BRANCH  25  28
ATOM     28  C13  11 d          -2.763 211.490 120.634  0.00  0.00     0.155 C 
ATOM     29  O2   11 d          -2.080 210.685 121.320  0.00  0.00    -0.293 OA
ATOM     30  C14  11 d          -2.548 212.963 120.852  0.00  0.00     0.096 C 
ENDBRANCH  25  28
ENDBRANCH  20  22
ENDBRANCH   8  18
BRANCH  15  31
ATOM     31  C23  11 d         -14.880 204.626 118.763  0.00  0.00     0.256 C 
ATOM     32  O4   11 d         -15.124 203.373 118.861  0.00  0.00    -0.267 OA
ATOM     33  N3   11 d         -15.275 205.519 119.822  0.00  0.00    -0.323 N 
ATOM     34  H15  11 d         -15.055 206.558 119.713  0.00  0.00     0.169 HD
BRANCH  33  35
ATOM     35  C24  11 d         -15.975 205.180 121.082  0.00  0.00     0.035 A 
ATOM     36  C25  11 d         -17.340 205.532 121.163  0.00  0.00     0.030 A 
ATOM     37  C26  11 d         -18.107 205.228 122.294  0.00  0.00     0.017 A 
ATOM     38  C27  11 d         -17.534 204.563 123.396  0.00  0.00     0.009 A 
ATOM     39  C30  11 d         -16.168 204.217 123.329  0.00  0.00     0.017 A 
ATOM     40  C31  11 d         -15.399 204.522 122.193  0.00  0.00     0.030 A 
BRANCH  38  41
ATOM     41  C28  11 d         -18.378 204.229 124.586  0.00  0.00     0.155 C 
ATOM     42  O5   11 d         -17.829 203.829 125.646  0.00  0.00    -0.293 OA
ATOM     43  C29  11 d         -19.880 204.235 124.534  0.00  0.00     0.096 C 
ENDBRANCH  38  41
ENDBRANCH  33  35
ENDBRANCH  15  31
TORSDOF 6
ENDMDL
MODEL 3
REMARK VINA RESULT:      -9.5      1.400      2.077
REMARK  6 active torsions:
REMARK  status: ('A' for Active; 'I' for Inactive)
REMARK    1  A    between atoms: C7_8  and  C8_9 
REMARK       I    between atoms: C8_9  and  N2_11 
REMARK    2  A    between atoms: N2_11  and  C9_12 
REMARK    3  A    between atoms: C12_15  and  C13_16 
REMARK    4  A    between atoms: C22_27  and  C23_28 
REMARK       I    between atoms: C23_28  and  N3_30 
REMARK    5  A    between atoms: N3_30  and  C24_31 
REMARK    6  A    between atoms: C27_34  and  C28_35 
ROOT
ATOM      1  C1   11 d          -9.048 208.420 115.489  0.00  0.00     0.266 A 
ATOM      2  C2   11 d          -7.765 209.095 115.592  0.00  0.00     0.049 A 
ATOM      3  C3   11 d          -7.365 209.441 114.322  0.00  0.00     0.048 A 
ATOM      4  C4   11 d          -8.410 208.967 113.406  0.00  0.00     0.266 A 
ATOM      5  N1   11 d          -9.471 208.322 114.124  0.00  0.00    -0.244 N 
ATOM      6  C5   11 d         -10.717 207.693 113.591  0.00  0.00     0.046 A 
ATOM      7  C6   11 d         -11.663 207.100 114.461  0.00  0.00     0.047 A 
ATOM      8  C7   11 d         -12.850 206.481 114.008  0.00  0.00     0.034 A 
ATOM      9  C17  11 d         -13.093 206.460 112.619  0.00  0.00     0.017 A 
ATOM     10  C18  11 d         -12.176 207.039 111.731  0.00  0.00     0.003 A 
ATOM     11  C19  11 d         -11.006 207.649 112.209  0.00  0.00     0.030 A 
ATOM     12  O3   11 d          -8.353 209.120 112.136  0.00  0.00    -0.267 OA
ATOM     13  C20  11 d          -6.148 210.100 114.116  0.00  0.00     0.019 A 
ATOM     14  C21  11 d          -5.335 210.382 115.236  0.00  0.00     0.018 A 
ATOM     15  C22  11 d          -5.729 210.010 116.556  0.00  0.00     0.033 A 
ATOM     16  C32  11 d          -6.982 209.363 116.715  0.00  0.00     0.035 A 
ATOM     17  O6   11 d          -9.672 207.984 116.515  0.00  0.00    -0.267 OA
ENDROOT
BRANCH   8  18
ATOM     18  C8   11 d         -13.779 205.887 115.036  0.00  0.00     0.256 C 
ATOM     19  O1   11 d         -15.034 205.942 114.794  0.00  0.00    -0.267 OA
ATOM     20  N2   11 d         -13.323 205.274 116.255  0.00  0.00    -0.323 N 
ATOM     21  H2   11 d         -12.268 205.239 116.432  0.00  0.00     0.169 HD
BRANCH  20  22
ATOM     22  C9   11 d         -14.174 204.674 117.315  0.00  0.00     0.035 A 
ATOM     23  C10  11 d         -14.144 205.283 118.587  0.00  0.00     0.030 A 
ATOM     24  C11  11 d         -14.920 204.793 119.649  0.00  0.00     0.017 A 
ATOM     25  C12  11 d         -15.763 203.677 119.475  0.00  0.00     0.009 A 
ATOM     26  C15  11 d         -15.795 203.061 118.209  0.00  0.00     0.017 A 
ATOM     27  C16  11 d         -15.016 203.547 117.151  0.00  0.00     0.030 A 
BRANCH  25  28
ATOM     28  C13  11 d         -16.589 203.162 120.612  0.00  0.00     0.155 C 
ATOM     29  O2   11 d         -16.024 202.775 121.668  0.00  0.00    -0.293 OA
ATOM     30  C14  11 d         -18.093 203.149 120.570  0.00  0.00     0.096 C 
ENDBRANCH  25  28
ENDBRANCH  20  22
ENDBRANCH   8  18
BRANCH  15  31
ATOM     31  C23  11 d          -4.801 210.265 117.717  0.00  0.00     0.256 C 
ATOM     32  O4   11 d          -3.601 209.830 117.627  0.00  0.00    -0.267 OA
ATOM     33  N3   11 d          -5.223 210.969 118.902  0.00  0.00    -0.323 N 
ATOM     34  H15  11 d          -6.229 211.324 118.945  0.00  0.00     0.169 HD
BRANCH  33  35
ATOM     35  C24  11 d          -4.423 211.272 120.111  0.00  0.00     0.035 A 
ATOM     36  C25  11 d          -4.208 210.206 121.010  0.00  0.00     0.030 A 
ATOM     37  C26  11 d          -3.437 210.372 122.167  0.00  0.00     0.017 A 
ATOM     38  C27  11 d          -2.856 211.618 122.474  0.00  0.00     0.009 A 
ATOM     39  C30  11 d          -3.076 212.692 121.587  0.00  0.00     0.017 A 
ATOM     40  C31  11 d          -3.848 212.525 120.425  0.00  0.00     0.030 A 
BRANCH  38  41
ATOM     41  C28  11 d          -2.018 211.767 123.705  0.00  0.00     0.155 C 
ATOM     42  O5   11 d          -1.987 210.837 124.553  0.00  0.00    -0.293 OA
ATOM     43  C29  11 d          -1.296 213.042 124.037  0.00  0.00     0.096 C 
ENDBRANCH  38  41
ENDBRANCH  33  35
ENDBRANCH  15  31
TORSDOF 6
ENDMDL
MODEL 4
REMARK VINA RESULT:      -9.4      6.517     12.396
REMARK  6 active torsions:
REMARK  status: ('A' for Active; 'I' for Inactive)
REMARK    1  A    between atoms: C7_8  and  C8_9 
REMARK       I    between atoms: C8_9  and  N2_11 
REMARK    2  A    between atoms: N2_11  and  C9_12 
REMARK    3  A    between atoms: C12_15  and  C13_16 
REMARK    4  A    between atoms: C22_27  and  C23_28 
REMARK       I    between atoms: C23_28  and  N3_30 
REMARK    5  A    between atoms: N3_30  and  C24_31 
REMARK    6  A    between atoms: C27_34  and  C28_35 
ROOT
ATOM      1  C1   11 d         -17.325 204.096 121.655  0.00  0.00     0.266 A 
ATOM      2  C2   11 d         -16.133 204.568 120.971  0.00  0.00     0.049 A 
ATOM      3  C3   11 d         -15.362 205.249 121.884  0.00  0.00     0.048 A 
ATOM      4  C4   11 d         -16.087 205.212 123.161  0.00  0.00     0.266 A 
ATOM      5  N1   11 d         -17.322 204.494 123.031  0.00  0.00    -0.244 N 
ATOM      6  C5   11 d         -18.362 204.222 124.069  0.00  0.00     0.046 A 
ATOM      7  C6   11 d         -19.528 203.485 123.755  0.00  0.00     0.047 A 
ATOM      8  C7   11 d         -20.548 203.211 124.696  0.00  0.00     0.034 A 
ATOM      9  C17  11 d         -20.383 203.703 126.007  0.00  0.00     0.017 A 
ATOM     10  C18  11 d         -19.239 204.436 126.349  0.00  0.00     0.003 A 
ATOM     11  C19  11 d         -18.241 204.691 125.396  0.00  0.00     0.030 A 
ATOM     12  O3   11 d         -15.650 205.760 124.232  0.00  0.00    -0.267 OA
ATOM     13  C20  11 d         -14.149 205.829 121.498  0.00  0.00     0.019 A 
ATOM     14  C21  11 d         -13.747 205.716 120.148  0.00  0.00     0.018 A 
ATOM     15  C22  11 d         -14.548 205.030 119.187  0.00  0.00     0.033 A 
ATOM     16  C32  11 d         -15.759 204.441 119.633  0.00  0.00     0.035 A 
ATOM     17  O6   11 d         -18.232 203.423 121.058  0.00  0.00    -0.267 OA
ENDROOT
BRANCH   8  18
ATOM     18  C8   11 d         -21.741 202.412 124.237  0.00  0.00     0.256 C 
ATOM     19  O1   11 d         -21.765 202.045 123.012  0.00  0.00    -0.267 OA
ATOM     20  N2   11 d         -22.834 202.055 125.101  0.00  0.00    -0.323 N 
ATOM     21  H2   11 d         -22.789 202.373 126.121  0.00  0.00     0.169 HD
BRANCH  20  22
ATOM     22  C9   11 d         -24.042 201.276 124.723  0.00  0.00     0.035 A 
ATOM     23  C10  11 d         -25.241 201.997 124.537  0.00  0.00     0.030 A 
ATOM     24  C11  11 d         -26.432 201.351 124.170  0.00  0.00     0.017 A 
ATOM     25  C12  11 d         -26.466 199.957 123.967  0.00  0.00     0.009 A 
ATOM     26  C15  11 d         -25.275 199.230 124.155  0.00  0.00     0.017 A 
ATOM     27  C16  11 d         -24.087 199.874 124.527  0.00  0.00     0.030 A 
BRANCH  25  28
ATOM     28  C13  11 d         -27.739 199.276 123.573  0.00  0.00     0.155 C 
ATOM     29  O2   11 d         -28.653 199.937 123.016  0.00  0.00    -0.293 OA
ATOM     30  C14  11 d         -27.950 197.798 123.759  0.00  0.00     0.096 C 
ENDBRANCH  25  28
ENDBRANCH  20  22
ENDBRANCH   8  18
BRANCH  15  31
ATOM     31  C23  11 d         -14.118 204.992 117.741  0.00  0.00     0.256 C 
ATOM     32  O4   11 d         -13.504 203.948 117.329  0.00  0.00    -0.267 OA
ATOM     33  N3   11 d         -14.374 206.081 116.832  0.00  0.00    -0.323 N 
ATOM     34  H15  11 d         -14.892 206.937 117.205  0.00  0.00     0.169 HD
BRANCH  33  35
ATOM     35  C24  11 d         -13.996 206.179 115.404  0.00  0.00     0.035 A 
ATOM     36  C25  11 d         -15.050 206.141 114.466  0.00  0.00     0.030 A 
ATOM     37  C26  11 d         -14.811 206.261 113.092  0.00  0.00     0.017 A 
ATOM     38  C27  11 d         -13.500 206.416 112.600  0.00  0.00     0.009 A 
ATOM     39  C30  11 d         -12.439 206.445 113.529  0.00  0.00     0.017 A 
ATOM     40  C31  11 d         -12.680 206.326 114.908  0.00  0.00     0.030 A 
BRANCH  38  41
ATOM     41  C28  11 d         -13.268 206.564 111.129  0.00  0.00     0.155 C 
ATOM     42  O5   11 d         -12.110 206.814 110.703  0.00  0.00    -0.293 OA
ATOM     43  C29  11 d         -14.392 206.544 110.132  0.00  0.00     0.096 C 
ENDBRANCH  38  41
ENDBRANCH  33  35
ENDBRANCH  15  31
TORSDOF 6
ENDMDL
MODEL 5
REMARK VINA RESULT:      -9.2      4.712      9.387
REMARK  6 active torsions:
REMARK  status: ('A' for Active; 'I' for Inactive)
REMARK    1  A    between atoms: C7_8  and  C8_9 
REMARK       I    between atoms: C8_9  and  N2_11 
REMARK    2  A    between atoms: N2_11  and  C9_12 
REMARK    3  A    between atoms: C12_15  and  C13_16 
REMARK    4  A    between atoms: C22_27  and  C23_28 
REMARK       I    between atoms: C23_28  and  N3_30 
REMARK    5  A    between atoms: N3_30  and  C24_31 
REMARK    6  A    between atoms: C27_34  and  C28_35 
ROOT
ATOM      1  C1   11 d          -8.033 207.781 118.266  0.00  0.00     0.266 A 
ATOM      2  C2   11 d          -7.647 207.543 119.646  0.00  0.00     0.049 A 
ATOM      3  C3   11 d          -6.370 208.024 119.818  0.00  0.00     0.048 A 
ATOM      4  C4   11 d          -5.943 208.564 118.520  0.00  0.00     0.266 A 
ATOM      5  N1   11 d          -6.976 208.416 117.536  0.00  0.00    -0.244 N 
ATOM      6  C5   11 d          -6.965 208.818 116.097  0.00  0.00     0.046 A 
ATOM      7  C6   11 d          -8.090 208.593 115.269  0.00  0.00     0.047 A 
ATOM      8  C7   11 d          -8.126 208.942 113.900  0.00  0.00     0.034 A 
ATOM      9  C17  11 d          -6.979 209.544 113.343  0.00  0.00     0.017 A 
ATOM     10  C18  11 d          -5.848 209.781 114.137  0.00  0.00     0.003 A 
ATOM     11  C19  11 d          -5.841 209.426 115.494  0.00  0.00     0.030 A 
ATOM     12  O3   11 d          -4.792 209.090 118.323  0.00  0.00    -0.267 OA
ATOM     13  C20  11 d          -5.732 207.918 121.059  0.00  0.00     0.019 A 
ATOM     14  C21  11 d          -6.421 207.290 122.120  0.00  0.00     0.018 A 
ATOM     15  C22  11 d          -7.738 206.769 121.949  0.00  0.00     0.033 A 
ATOM     16  C32  11 d          -8.350 206.920 120.678  0.00  0.00     0.035 A 
ATOM     17  O6   11 d          -9.177 207.442 117.810  0.00  0.00    -0.267 OA
ENDROOT
BRANCH   8  18
ATOM     18  C8   11 d          -9.387 208.651 113.126  0.00  0.00     0.256 C 
ATOM     19  O1   11 d          -9.536 209.248 112.004  0.00  0.00    -0.267 OA
ATOM     20  N2   11 d         -10.409 207.750 113.586  0.00  0.00    -0.323 N 
ATOM     21  H2   11 d         -10.258 207.263 114.527  0.00  0.00     0.169 HD
BRANCH  20  22
ATOM     22  C9   11 d         -11.676 207.417 112.885  0.00  0.00     0.035 A 
ATOM     23  C10  11 d         -12.878 207.835 113.493  0.00  0.00     0.030 A 
ATOM     24  C11  11 d         -14.125 207.575 112.902  0.00  0.00     0.017 A 
ATOM     25  C12  11 d         -14.214 206.892 111.673  0.00  0.00     0.009 A 
ATOM     26  C15  11 d         -13.018 206.468 111.061  0.00  0.00     0.017 A 
ATOM     27  C16  11 d         -11.774 206.723 111.654  0.00  0.00     0.030 A 
BRANCH  25  28
ATOM     28  C13  11 d         -15.546 206.621 111.047  0.00  0.00     0.155 C 
ATOM     29  O2   11 d         -15.764 206.984 109.862  0.00  0.00    -0.293 OA
ATOM     30  C14  11 d         -16.630 205.863 111.764  0.00  0.00     0.096 C 
ENDBRANCH  25  28
ENDBRANCH  20  22
ENDBRANCH   8  18
BRANCH  15  31
ATOM     31  C23  11 d          -8.412 206.043 123.086  0.00  0.00     0.256 C 
ATOM     32  O4   11 d          -8.435 206.617 124.230  0.00  0.00    -0.267 OA
ATOM     33  N3   11 d          -9.016 204.744 122.923  0.00  0.00    -0.323 N 
ATOM     34  H15  11 d          -8.985 204.293 121.956  0.00  0.00     0.169 HD
BRANCH  33  35
ATOM     35  C24  11 d          -9.691 203.921 123.951  0.00  0.00     0.035 A 
ATOM     36  C25  11 d         -11.102 203.895 123.915  0.00  0.00     0.030 A 
ATOM     37  C26  11 d         -11.842 203.122 124.818  0.00  0.00     0.017 A 
ATOM     38  C27  11 d         -11.196 202.348 125.802  0.00  0.00     0.009 A 
ATOM     39  C30  11 d          -9.786 202.376 125.852  0.00  0.00     0.017 A 
ATOM     40  C31  11 d          -9.045 203.151 124.945  0.00  0.00     0.030 A 
BRANCH  38  41
ATOM     41  C28  11 d         -12.005 201.512 126.743  0.00  0.00     0.155 C 
ATOM     42  O5   11 d         -13.225 201.771 126.914  0.00  0.00    -0.293 OA
ATOM     43  C29  11 d         -11.392 200.437 127.595  0.00  0.00     0.096 C 
ENDBRANCH  38  41
ENDBRANCH  33  35
ENDBRANCH  15  31
TORSDOF 6
ENDMDL
MODEL 6
REMARK VINA RESULT:      -9.1      4.466     11.358
REMARK  6 active torsions:
REMARK  status: ('A' for Active; 'I' for Inactive)
REMARK    1  A    between atoms: C7_8  and  C8_9 
REMARK       I    between atoms: C8_9  and  N2_11 
REMARK    2  A    between atoms: N2_11  and  C9_12 
REMARK    3  A    between atoms: C12_15  and  C13_16 
REMARK    4  A    between atoms: C22_27  and  C23_28 
REMARK       I    between atoms: C23_28  and  N3_30 
REMARK    5  A    between atoms: N3_30  and  C24_31 
REMARK    6  A    between atoms: C27_34  and  C28_35 
ROOT
ATOM      1  C1   11 d          -5.744 208.669 116.475  0.00  0.00     0.266 A 
ATOM      2  C2   11 d          -6.264 208.572 115.122  0.00  0.00     0.049 A 
ATOM      3  C3   11 d          -5.196 208.596 114.256  0.00  0.00     0.048 A 
ATOM      4  C4   11 d          -3.986 208.719 115.079  0.00  0.00     0.266 A 
ATOM      5  N1   11 d          -4.316 208.769 116.474  0.00  0.00    -0.244 N 
ATOM      6  C5   11 d          -3.402 208.898 117.649  0.00  0.00     0.046 A 
ATOM      7  C6   11 d          -3.911 208.927 118.968  0.00  0.00     0.047 A 
ATOM      8  C7   11 d          -3.092 209.060 120.113  0.00  0.00     0.034 A 
ATOM      9  C17  11 d          -1.700 209.168 119.916  0.00  0.00     0.017 A 
ATOM     10  C18  11 d          -1.163 209.141 118.622  0.00  0.00     0.003 A 
ATOM     11  C19  11 d          -2.000 209.006 117.504  0.00  0.00     0.030 A 
ATOM     12  O3   11 d          -2.806 208.776 114.587  0.00  0.00    -0.267 OA
ATOM     13  C20  11 d          -5.402 208.528 112.873  0.00  0.00     0.019 A 
ATOM     14  C21  11 d          -6.728 208.455 112.391  0.00  0.00     0.018 A 
ATOM     15  C22  11 d          -7.845 208.451 113.279  0.00  0.00     0.033 A 
ATOM     16  C32  11 d          -7.583 208.500 114.672  0.00  0.00     0.035 A 
ATOM     17  O6   11 d          -6.508 208.668 117.500  0.00  0.00    -0.267 OA
ENDROOT
BRANCH   8  18
ATOM     18  C8   11 d          -3.758 209.077 121.465  0.00  0.00     0.256 C 
ATOM     19  O1   11 d          -3.189 208.424 122.406  0.00  0.00    -0.267 OA
ATOM     20  N2   11 d          -4.983 209.780 121.736  0.00  0.00    -0.323 N 
ATOM     21  H2   11 d          -5.437 210.320 120.932  0.00  0.00     0.169 HD
BRANCH  20  22
ATOM     22  C9   11 d          -5.699 209.839 123.037  0.00  0.00     0.035 A 
ATOM     23  C10  11 d          -6.619 208.806 123.313  0.00  0.00     0.030 A 
ATOM     24  C11  11 d          -7.338 208.770 124.519  0.00  0.00     0.017 A 
ATOM     25  C12  11 d          -7.155 209.767 125.499  0.00  0.00     0.009 A 
ATOM     26  C15  11 d          -6.242 210.804 125.229  0.00  0.00     0.017 A 
ATOM     27  C16  11 d          -5.529 210.842 124.023  0.00  0.00     0.030 A 
BRANCH  25  28
ATOM     28  C13  11 d          -7.923 209.720 126.783  0.00  0.00     0.155 C 
ATOM     29  O2   11 d          -9.064 210.247 126.846  0.00  0.00    -0.293 OA
ATOM     30  C14  11 d          -7.407 209.003 128.001  0.00  0.00     0.096 C 
ENDBRANCH  25  28
ENDBRANCH  20  22
ENDBRANCH   8  18
BRANCH  15  31
ATOM     31  C23  11 d          -9.247 208.444 112.722  0.00  0.00     0.256 C 
ATOM     32  O4   11 d          -9.564 209.369 111.897  0.00  0.00    -0.267 OA
ATOM     33  N3   11 d         -10.218 207.445 113.091  0.00  0.00    -0.323 N 
ATOM     34  H15  11 d          -9.922 206.684 113.778  0.00  0.00     0.169 HD
BRANCH  33  35
ATOM     35  C24  11 d         -11.622 207.332 112.634  0.00  0.00     0.035 A 
ATOM     36  C25  11 d         -11.825 206.831 111.330  0.00  0.00     0.030 A 
ATOM     37  C26  11 d         -13.111 206.649 110.809  0.00  0.00     0.017 A 
ATOM     38  C27  11 d         -14.250 206.971 111.574  0.00  0.00     0.009 A 
ATOM     39  C30  11 d         -14.057 207.483 112.874  0.00  0.00     0.017 A 
ATOM     40  C31  11 d         -12.766 207.664 113.396  0.00  0.00     0.030 A 
BRANCH  38  41
ATOM     41  C28  11 d         -15.617 206.749 111.005  0.00  0.00     0.155 C 
ATOM     42  O5   11 d         -15.856 207.076 109.813  0.00  0.00    -0.293 OA
ATOM     43  C29  11 d         -16.765 206.255 111.840  0.00  0.00     0.096 C 
ENDBRANCH  38  41
ENDBRANCH  33  35
ENDBRANCH  15  31
TORSDOF 6
ENDMDL
MODEL 7
REMARK VINA RESULT:      -8.8      4.726     10.320
REMARK  6 active torsions:
REMARK  status: ('A' for Active; 'I' for Inactive)
REMARK    1  A    between atoms: C7_8  and  C8_9 
REMARK       I    between atoms: C8_9  and  N2_11 
REMARK    2  A    between atoms: N2_11  and  C9_12 
REMARK    3  A    between atoms: C12_15  and  C13_16 
REMARK    4  A    between atoms: C22_27  and  C23_28 
REMARK       I    between atoms: C23_28  and  N3_30 
REMARK    5  A    between atoms: N3_30  and  C24_31 
REMARK    6  A    between atoms: C27_34  and  C28_35 
ROOT
ATOM      1  C1   11 d          -7.071 208.214 118.296  0.00  0.00     0.266 A 
ATOM      2  C2   11 d          -7.274 208.672 116.932  0.00  0.00     0.049 A 
ATOM      3  C3   11 d          -6.241 209.522 116.612  0.00  0.00     0.048 A 
ATOM      4  C4   11 d          -5.379 209.606 117.799  0.00  0.00     0.266 A 
ATOM      5  N1   11 d          -5.890 208.792 118.864  0.00  0.00    -0.244 N 
ATOM      6  C5   11 d          -5.338 208.590 120.238  0.00  0.00     0.046 A 
ATOM      7  C6   11 d          -5.982 207.738 121.164  0.00  0.00     0.047 A 
ATOM      8  C7   11 d          -5.509 207.523 122.479  0.00  0.00     0.034 A 
ATOM      9  C17  11 d          -4.335 208.196 122.874  0.00  0.00     0.017 A 
ATOM     10  C18  11 d          -3.672 209.047 121.979  0.00  0.00     0.003 A 
ATOM     11  C19  11 d          -4.163 209.241 120.679  0.00  0.00     0.030 A 
ATOM     12  O3   11 d          -4.320 210.322 117.848  0.00  0.00    -0.267 OA
ATOM     13  C20  11 d          -6.183 210.128 115.352  0.00  0.00     0.019 A 
ATOM     14  C21  11 d          -7.219 209.862 114.428  0.00  0.00     0.018 A 
ATOM     15  C22  11 d          -8.307 209.000 114.756  0.00  0.00     0.033 A 
ATOM     16  C32  11 d          -8.309 208.393 116.038  0.00  0.00     0.035 A 
ATOM     17  O6   11 d          -7.877 207.405 118.870  0.00  0.00    -0.267 OA
ENDROOT
BRANCH   8  18
ATOM     18  C8   11 d          -6.287 206.588 123.370  0.00  0.00     0.256 C 
ATOM     19  O1   11 d          -6.227 206.796 124.631  0.00  0.00    -0.267 OA
ATOM     20  N2   11 d          -7.076 205.494 122.873  0.00  0.00    -0.323 N 
ATOM     21  H2   11 d          -7.111 205.343 121.814  0.00  0.00     0.169 HD
BRANCH  20  22
ATOM     22  C9   11 d          -7.863 204.530 123.686  0.00  0.00     0.035 A 
ATOM     23  C10  11 d          -9.253 204.752 123.782  0.00  0.00     0.030 A 
ATOM     24  C11  11 d         -10.081 203.892 124.519  0.00  0.00     0.017 A 
ATOM     25  C12  11 d          -9.548 202.769 125.183  0.00  0.00     0.009 A 
ATOM     26  C15  11 d          -8.161 202.542 125.096  0.00  0.00     0.017 A 
ATOM     27  C16  11 d          -7.334 203.405 124.364  0.00  0.00     0.030 A 
BRANCH  25  28
ATOM     28  C13  11 d         -10.438 201.854 125.966  0.00  0.00     0.155 C 
ATOM     29  O2   11 d         -11.212 202.331 126.837  0.00  0.00    -0.293 OA
ATOM     30  C14  11 d         -10.496 200.373 125.705  0.00  0.00     0.096 C 
ENDBRANCH  25  28
ENDBRANCH  20  22
ENDBRANCH   8  18
BRANCH  15  31
ATOM     31  C23  11 d          -9.429 208.798 113.768  0.00  0.00     0.256 C 
ATOM     32  O4   11 d          -9.432 209.523 112.713  0.00  0.00    -0.267 OA
ATOM     33  N3   11 d         -10.478 207.833 113.978  0.00  0.00    -0.323 N 
ATOM     34  H15  11 d         -10.446 207.240 114.866  0.00  0.00     0.169 HD
BRANCH  33  35
ATOM     35  C24  11 d         -11.638 207.547 113.103  0.00  0.00     0.035 A 
ATOM     36  C25  11 d         -12.915 207.840 113.628  0.00  0.00     0.030 A 
ATOM     37  C26  11 d         -14.077 207.642 112.874  0.00  0.00     0.017 A 
ATOM     38  C27  11 d         -14.007 207.133 111.562  0.00  0.00     0.009 A 
ATOM     39  C30  11 d         -12.736 206.827 111.033  0.00  0.00     0.017 A 
ATOM     40  C31  11 d         -11.570 207.027 111.790  0.00  0.00     0.030 A 
BRANCH  38  41
ATOM     41  C28  11 d         -15.261 206.949 110.766  0.00  0.00     0.155 C 
ATOM     42  O5   11 d         -15.280 207.275 109.550  0.00  0.00    -0.293 OA
ATOM     43  C29  11 d         -16.551 206.497 111.390  0.00  0.00     0.096 C 
ENDBRANCH  38  41
ENDBRANCH  33  35
ENDBRANCH  15  31
TORSDOF 6
ENDMDL
MODEL 8
REMARK VINA RESULT:      -8.7      6.084     11.529
REMARK  6 active torsions:
REMARK  status: ('A' for Active; 'I' for Inactive)
REMARK    1  A    between atoms: C7_8  and  C8_9 
REMARK       I    between atoms: C8_9  and  N2_11 
REMARK    2  A    between atoms: N2_11  and  C9_12 
REMARK    3  A    between atoms: C12_15  and  C13_16 
REMARK    4  A    between atoms: C22_27  and  C23_28 
REMARK       I    between atoms: C23_28  and  N3_30 
REMARK    5  A    between atoms: N3_30  and  C24_31 
REMARK    6  A    between atoms: C27_34  and  C28_35 
ROOT
ATOM      1  C1   11 d         -15.725 204.957 121.365  0.00  0.00     0.266 A 
ATOM      2  C2   11 d         -14.755 205.178 120.306  0.00  0.00     0.049 A 
ATOM      3  C3   11 d         -13.551 205.491 120.894  0.00  0.00     0.048 A 
ATOM      4  C4   11 d         -13.772 205.474 122.346  0.00  0.00     0.266 A 
ATOM      5  N1   11 d         -15.133 205.144 122.656  0.00  0.00    -0.244 N 
ATOM      6  C5   11 d         -15.787 205.023 123.994  0.00  0.00     0.046 A 
ATOM      7  C6   11 d         -17.155 204.681 124.107  0.00  0.00     0.047 A 
ATOM      8  C7   11 d         -17.824 204.567 125.347  0.00  0.00     0.034 A 
ATOM      9  C17  11 d         -17.082 204.808 126.521  0.00  0.00     0.017 A 
ATOM     10  C18  11 d         -15.724 205.148 126.442  0.00  0.00     0.003 A 
ATOM     11  C19  11 d         -15.085 205.253 125.198  0.00  0.00     0.030 A 
ATOM     12  O3   11 d         -12.852 205.730 123.198  0.00  0.00    -0.267 OA
ATOM     13  C20  11 d         -12.427 205.768 120.107  0.00  0.00     0.019 A 
ATOM     14  C21  11 d         -12.565 205.738 118.701  0.00  0.00     0.018 A 
ATOM     15  C22  11 d         -13.813 205.436 118.080  0.00  0.00     0.033 A 
ATOM     16  C32  11 d         -14.917 205.142 118.921  0.00  0.00     0.035 A 
ATOM     17  O6   11 d         -16.940 204.645 121.121  0.00  0.00    -0.267 OA
ENDROOT
BRANCH   8  18
ATOM     18  C8   11 d         -19.285 204.193 125.334  0.00  0.00     0.256 C 
ATOM     19  O1   11 d         -20.131 205.142 125.189  0.00  0.00    -0.267 OA
ATOM     20  N2   11 d         -19.758 202.843 125.476  0.00  0.00    -0.323 N 
ATOM     21  H2   11 d         -19.030 202.068 125.594  0.00  0.00     0.169 HD
BRANCH  20  22
ATOM     22  C9   11 d         -21.177 202.398 125.478  0.00  0.00     0.035 A 
ATOM     23  C10  11 d         -21.793 202.206 124.224  0.00  0.00     0.030 A 
ATOM     24  C11  11 d         -23.127 201.779 124.124  0.00  0.00     0.017 A 
ATOM     25  C12  11 d         -23.892 201.520 125.279  0.00  0.00     0.009 A 
ATOM     26  C15  11 d         -23.285 201.714 126.534  0.00  0.00     0.017 A 
ATOM     27  C16  11 d         -21.955 202.146 126.634  0.00  0.00     0.030 A 
BRANCH  25  28
ATOM     28  C13  11 d         -25.312 201.062 125.164  0.00  0.00     0.155 C 
ATOM     29  O2   11 d         -25.755 200.678 124.050  0.00  0.00    -0.293 OA
ATOM     30  C14  11 d         -26.227 200.977 126.355  0.00  0.00     0.096 C 
ENDBRANCH  25  28
ENDBRANCH  20  22
ENDBRANCH   8  18
BRANCH  15  31
ATOM     31  C23  11 d         -13.935 205.484 116.577  0.00  0.00     0.256 C 
ATOM     32  O4   11 d         -14.713 204.638 116.015  0.00  0.00    -0.267 OA
ATOM     33  N3   11 d         -13.211 206.437 115.775  0.00  0.00    -0.323 N 
ATOM     34  H15  11 d         -12.573 207.134 116.273  0.00  0.00     0.169 HD
BRANCH  33  35
ATOM     35  C24  11 d         -13.228 206.583 114.301  0.00  0.00     0.035 A 
ATOM     36  C25  11 d         -14.420 207.074 113.728  0.00  0.00     0.030 A 
ATOM     37  C26  11 d         -14.535 207.283 112.348  0.00  0.00     0.017 A 
ATOM     38  C27  11 d         -13.458 207.001 111.485  0.00  0.00     0.009 A 
ATOM     39  C30  11 d         -12.266 206.500 112.048  0.00  0.00     0.017 A 
ATOM     40  C31  11 d         -12.151 206.291 113.432  0.00  0.00     0.030 A 
BRANCH  38  41
ATOM     41  C28  11 d         -13.594 207.253 110.016  0.00  0.00     0.155 C 
ATOM     42  O5   11 d         -12.565 207.462 109.322  0.00  0.00    -0.293 OA
ATOM     43  C29  11 d         -14.932 207.387 109.344  0.00  0.00     0.096 C 
ENDBRANCH  38  41
ENDBRANCH  33  35
ENDBRANCH  15  31
TORSDOF 6
ENDMDL
MODEL 9
REMARK VINA RESULT:      -8.7      1.941      2.527
REMARK  6 active torsions:
REMARK  status: ('A' for Active; 'I' for Inactive)
REMARK    1  A    between atoms: C7_8  and  C8_9 
REMARK       I    between atoms: C8_9  and  N2_11 
REMARK    2  A    between atoms: N2_11  and  C9_12 
REMARK    3  A    between atoms: C12_15  and  C13_16 
REMARK    4  A    between atoms: C22_27  and  C23_28 
REMARK       I    between atoms: C23_28  and  N3_30 
REMARK    5  A    between atoms: N3_30  and  C24_31 
REMARK    6  A    between atoms: C27_34  and  C28_35 
ROOT
ATOM      1  C1   11 d         -10.486 207.565 116.248  0.00  0.00     0.266 A 
ATOM      2  C2   11 d          -9.351 208.344 115.781  0.00  0.00     0.049 A 
ATOM      3  C3   11 d          -9.541 208.608 114.445  0.00  0.00     0.048 A 
ATOM      4  C4   11 d         -10.812 207.977 114.065  0.00  0.00     0.266 A 
ATOM      5  N1   11 d         -11.414 207.316 115.187  0.00  0.00    -0.244 N 
ATOM      6  C5   11 d         -12.695 206.548 115.246  0.00  0.00     0.046 A 
ATOM      7  C6   11 d         -13.137 205.962 116.454  0.00  0.00     0.047 A 
ATOM      8  C7   11 d         -14.332 205.215 116.562  0.00  0.00     0.034 A 
ATOM      9  C17  11 d         -15.115 205.055 115.399  0.00  0.00     0.017 A 
ATOM     10  C18  11 d         -14.705 205.625 114.187  0.00  0.00     0.003 A 
ATOM     11  C19  11 d         -13.514 206.363 114.110  0.00  0.00     0.030 A 
ATOM     12  O3   11 d         -11.292 208.024 112.879  0.00  0.00    -0.267 OA
ATOM     13  C20  11 d          -8.591 209.340 113.724  0.00  0.00     0.019 A 
ATOM     14  C21  11 d          -7.428 209.780 114.395  0.00  0.00     0.018 A 
ATOM     15  C22  11 d          -7.210 209.494 115.775  0.00  0.00     0.033 A 
ATOM     16  C32  11 d          -8.213 208.768 116.467  0.00  0.00     0.035 A 
ATOM     17  O6   11 d         -10.590 207.172 117.460  0.00  0.00    -0.267 OA
ENDROOT
BRANCH   8  18
ATOM     18  C8   11 d         -14.694 204.642 117.908  0.00  0.00     0.256 C 
ATOM     19  O1   11 d         -14.958 203.391 117.961  0.00  0.00    -0.267 OA
ATOM     20  N2   11 d         -14.756 205.426 119.112  0.00  0.00    -0.323 N 
ATOM     21  H2   11 d         -14.529 206.469 119.041  0.00  0.00     0.169 HD
BRANCH  20  22
ATOM     22  C9   11 d         -15.108 204.936 120.470  0.00  0.00     0.035 A 
ATOM     23  C10  11 d         -14.063 204.846 121.414  0.00  0.00     0.030 A 
ATOM     24  C11  11 d         -14.299 204.402 122.725  0.00  0.00     0.017 A 
ATOM     25  C12  11 d         -15.595 204.039 123.143  0.00  0.00     0.009 A 
ATOM     26  C15  11 d         -16.642 204.122 122.206  0.00  0.00     0.017 A 
ATOM     27  C16  11 d         -16.406 204.560 120.896  0.00  0.00     0.030 A 
BRANCH  25  28
ATOM     28  C13  11 d         -15.839 203.570 124.543  0.00  0.00     0.155 C 
ATOM     29  O2   11 d         -15.048 202.745 125.071  0.00  0.00    -0.293 OA
ATOM     30  C14  11 d         -16.970 204.100 125.382  0.00  0.00     0.096 C 
ENDBRANCH  25  28
ENDBRANCH  20  22
ENDBRANCH   8  18
BRANCH  15  31
ATOM     31  C23  11 d          -5.923 209.920 116.436  0.00  0.00     0.256 C 
ATOM     32  O4   11 d          -4.890 210.062 115.693  0.00  0.00    -0.267 OA
ATOM     33  N3   11 d          -5.827 210.163 117.853  0.00  0.00    -0.323 N 
ATOM     34  H15  11 d          -6.707 210.041 118.445  0.00  0.00     0.169 HD
BRANCH  33  35
ATOM     35  C24  11 d          -4.631 210.569 118.626  0.00  0.00     0.035 A 
ATOM     36  C25  11 d          -4.816 211.578 119.595  0.00  0.00     0.030 A 
ATOM     37  C26  11 d          -3.761 212.013 120.407  0.00  0.00     0.017 A 
ATOM     38  C27  11 d          -2.473 211.457 120.274  0.00  0.00     0.009 A 
ATOM     39  C30  11 d          -2.277 210.455 119.301  0.00  0.00     0.017 A 
ATOM     40  C31  11 d          -3.336 210.019 118.488  0.00  0.00     0.030 A 
BRANCH  38  41
ATOM     41  C28  11 d          -1.365 211.922 121.167  0.00  0.00     0.155 C 
ATOM     42  O5   11 d          -0.713 211.080 121.839  0.00  0.00    -0.293 OA
ATOM     43  C29  11 d          -1.070 213.378 121.391  0.00  0.00     0.096 C 
ENDBRANCH  38  41
ENDBRANCH  33  35
ENDBRANCH  15  31
TORSDOF 6
ENDMDL
MODEL 10
REMARK VINA RESULT:      -8.7      5.515     11.973
REMARK  6 active torsions:
REMARK  status: ('A' for Active; 'I' for Inactive)
REMARK    1  A    between atoms: C7_8  and  C8_9 
REMARK       I    between atoms: C8_9  and  N2_11 
REMARK    2  A    between atoms: N2_11  and  C9_12 
REMARK    3  A    between atoms: C12_15  and  C13_16 
REMARK    4  A    between atoms: C22_27  and  C23_28 
REMARK       I    between atoms: C23_28  and  N3_30 
REMARK    5  A    between atoms: N3_30  and  C24_31 
REMARK    6  A    between atoms: C27_34  and  C28_35 
ROOT
ATOM      1  C1   11 d         -10.518 205.612 120.697  0.00  0.00     0.266 A 
ATOM      2  C2   11 d         -10.540 204.928 121.979  0.00  0.00     0.049 A 
ATOM      3  C3   11 d          -9.316 205.116 122.579  0.00  0.00     0.048 A 
ATOM      4  C4   11 d          -8.511 205.924 121.654  0.00  0.00     0.266 A 
ATOM      5  N1   11 d          -9.252 206.240 120.467  0.00  0.00    -0.244 N 
ATOM      6  C5   11 d          -8.819 207.028 119.274  0.00  0.00     0.046 A 
ATOM      7  C6   11 d          -9.697 207.243 118.186  0.00  0.00     0.047 A 
ATOM      8  C7   11 d          -9.334 207.969 117.029  0.00  0.00     0.034 A 
ATOM      9  C17  11 d          -8.029 208.501 116.968  0.00  0.00     0.017 A 
ATOM     10  C18  11 d          -7.136 208.307 118.030  0.00  0.00     0.003 A 
ATOM     11  C19  11 d          -7.524 207.583 119.168  0.00  0.00     0.030 A 
ATOM     12  O3   11 d          -7.306 206.281 121.901  0.00  0.00    -0.267 OA
ATOM     13  C20  11 d          -9.046 204.554 123.832  0.00  0.00     0.019 A 
ATOM     14  C21  11 d         -10.049 203.775 124.452  0.00  0.00     0.018 A 
ATOM     15  C22  11 d         -11.314 203.556 123.830  0.00  0.00     0.033 A 
ATOM     16  C32  11 d         -11.547 204.164 122.570  0.00  0.00     0.035 A 
ATOM     17  O6   11 d         -11.525 205.615 119.910  0.00  0.00    -0.267 OA
ENDROOT
BRANCH   8  18
ATOM     18  C8   11 d         -10.362 208.129 115.938  0.00  0.00     0.256 C 
ATOM     19  O1   11 d         -10.634 209.320 115.559  0.00  0.00    -0.267 OA
ATOM     20  N2   11 d         -11.039 207.021 115.319  0.00  0.00    -0.323 N 
ATOM     21  H2   11 d         -10.791 206.035 115.652  0.00  0.00     0.169 HD
BRANCH  20  22
ATOM     22  C9   11 d         -12.064 207.099 114.245  0.00  0.00     0.035 A 
ATOM     23  C10  11 d         -11.726 206.549 112.991  0.00  0.00     0.030 A 
ATOM     24  C11  11 d         -12.631 206.567 111.918  0.00  0.00     0.017 A 
ATOM     25  C12  11 d         -13.915 207.130 112.064  0.00  0.00     0.009 A 
ATOM     26  C15  11 d         -14.258 207.685 113.312  0.00  0.00     0.017 A 
ATOM     27  C16  11 d         -13.352 207.672 114.381  0.00  0.00     0.030 A 
BRANCH  25  28
ATOM     28  C13  11 d         -14.876 207.143 110.916  0.00  0.00     0.155 C 
ATOM     29  O2   11 d         -14.494 207.551 109.789  0.00  0.00    -0.293 OA
ATOM     30  C14  11 d         -16.280 206.620 111.040  0.00  0.00     0.096 C 
ENDBRANCH  25  28
ENDBRANCH  20  22
ENDBRANCH   8  18
BRANCH  15  31
ATOM     31  C23  11 d         -12.331 202.660 124.492  0.00  0.00     0.256 C 
ATOM     32  O4   11 d         -13.561 203.007 124.430  0.00  0.00    -0.267 OA
ATOM     33  N3   11 d         -11.960 201.450 125.183  0.00  0.00    -0.323 N 
ATOM     34  H15  11 d         -10.926 201.185 125.214  0.00  0.00     0.169 HD
BRANCH  33  35
ATOM     35  C24  11 d         -12.849 200.496 125.883  0.00  0.00     0.035 A 
ATOM     36  C25  11 d         -13.014 199.228 125.285  0.00  0.00     0.030 A 
ATOM     37  C26  11 d         -13.804 198.237 125.879  0.00  0.00     0.017 A 
ATOM     38  C27  11 d         -14.469 198.480 127.098  0.00  0.00     0.009 A 
ATOM     39  C30  11 d         -14.318 199.747 127.697  0.00  0.00     0.017 A 
ATOM     40  C31  11 d         -13.525 200.741 127.101  0.00  0.00     0.030 A 
BRANCH  38  41
ATOM     41  C28  11 d         -15.291 197.399 127.726  0.00  0.00     0.155 C 
ATOM     42  O5   11 d         -14.796 196.251 127.882  0.00  0.00    -0.293 OA
ATOM     43  C29  11 d         -16.739 197.590 128.077  0.00  0.00     0.096 C 
ENDBRANCH  38  41
ENDBRANCH  33  35
ENDBRANCH  15  31
TORSDOF 6
ENDMDL
