REMARK  2 active torsions:
REMARK  status: ('A' for Active; 'I' for Inactive)
REMARK    1  A    between atoms: C2_5  and  C1_2 
REMARK    2  A    between atoms: C7_10  and  N1_11 
REMARK       I    between atoms: N1_11  and  C8_12 
ROOT
ATOM      1  N1  <1> d           6.293  42.080  49.837  0.00  0.00    -0.284 N 
ATOM      2  C8  <1> d           7.110  43.060  50.529  0.00  0.00     0.220 A 
ATOM      3  N2  <1> d           8.370  43.166  50.144  0.00  0.00    -0.223 NA
ATOM      4  C9  <1> d           9.185  44.087  50.767  0.00  0.00     0.116 A 
ATOM      5  C10 <1> d           8.769  44.949  51.818  0.00  0.00     0.049 A 
ATOM      6  N3  <1> d           6.623  43.832  51.514  0.00  0.00    -0.214 NA
ATOM      7  C11 <1> d           7.382  44.791  52.205  0.00  0.00     0.084 A 
ATOM      8  C12 <1> d           6.692  45.521  53.240  0.00  0.00     0.060 A 
ATOM      9  S1  <1> d           4.962  45.074  53.474  0.00  0.00    -0.071 SA
ATOM     10  C13 <1> d           7.004  46.543  54.176  0.00  0.00     0.055 A 
ATOM     11  C14 <1> d           8.375  47.246  54.366  0.00  0.00     0.067 C 
ATOM     12  N4  <1> d           5.936  46.943  55.009  0.00  0.00    -0.249 NA
ATOM     13  C15 <1> d           4.829  46.218  54.701  0.00  0.00     0.076 A 
ATOM     14  C16 <1> d           3.467  46.305  55.328  0.00  0.00     0.074 C 
ATOM     15  H5  <1> d           6.859  41.621  49.152  0.00  0.00     0.155 HD
ENDROOT
BRANCH   1  16
ATOM     16  C7  <1> d           4.924  41.510  49.775  0.00  0.00     0.034 A 
ATOM     17  C4  <1> d           4.583  40.447  48.773  0.00  0.00     0.024 A 
ATOM     18  C3  <1> d           3.244  39.926  48.705  0.00  0.00     0.014 A 
ATOM     19  C2  <1> d           2.225  40.429  49.611  0.00  0.00     0.055 A 
ATOM     20  C5  <1> d           2.580  41.454  50.589  0.00  0.00     0.014 A 
ATOM     21  C6  <1> d           3.893  41.970  50.659  0.00  0.00     0.024 A 
BRANCH  19  22
ATOM     22  C1  <1> d           0.719  39.883  49.526  0.00  0.00     0.417 C 
ATOM     23  F1  <1> d          -0.150  40.983  49.686  0.00  0.00    -0.166 F 
ATOM     24  F2  <1> d           0.479  39.286  48.266  0.00  0.00    -0.166 F 
ATOM     25  F3  <1> d           0.503  38.951  50.546  0.00  0.00    -0.166 F 
ENDBRANCH  19  22
ENDBRANCH   1  16
TORSDOF 2
