REMARK  0 active torsions:
REMARK  status: ('A' for Active; 'I' for Inactive)
ROOT
ATOM      1  C1   11 d           2.913   4.274  -7.153  0.00  0.00     0.136 A 
ATOM      2  N1   11 d           3.604   4.346  -8.329  0.00  0.00    -0.341 N 
ATOM      3  C2   11 d           2.705   4.278  -9.329  0.00  0.00     0.062 A 
ATOM      4  C3   11 d           1.456   4.149  -8.764  0.00  0.00     0.086 A 
ATOM      5  C4   11 d           0.304   4.032  -9.548  0.00  0.00     0.040 A 
ATOM      6  C5   11 d           0.448   4.029 -10.956  0.00  0.00    -0.060 A 
ATOM      7  C6   11 d           1.733   4.215 -11.531  0.00  0.00     0.009 A 
ATOM      8  C7   11 d           2.879   4.324 -10.719  0.00  0.00     0.032 A 
ATOM      9  C8   11 d          -0.769   3.989 -11.837  0.00  0.00     0.048 C 
ATOM     10  N2   11 d           1.587   4.160  -7.423  0.00  0.00    -0.231 NA
ATOM     11  C9   11 d           3.437   4.288  -5.719  0.00  0.00     0.255 C 
ATOM     12  N3   11 d           4.231   5.503  -5.330  0.00  0.00    -0.064 N 
ATOM     13  C10  11 d           5.645   5.062  -5.130  0.00  0.00     0.233 C 
ATOM     14  C11  11 d           5.740   3.621  -5.618  0.00  0.00     0.030 C 
ATOM     15  C12  11 d           4.335   3.089  -5.412  0.00  0.00     0.042 C 
ATOM     16  H1   11 d           4.642   4.420  -8.477  0.00  0.00     0.167 HD
ATOM     17  H9   11 d           4.176   6.289  -6.059  0.00  0.00     0.278 HD
ATOM     18  H10  11 d           3.857   5.911  -4.407  0.00  0.00     0.278 HD
ENDROOT
TORSDOF 0
