MODEL 1
REMARK VINA RESULT:      -8.7      0.000      0.000
REMARK  6 active torsions:
REMARK  status: ('A' for Active; 'I' for Inactive)
REMARK    1  A    between atoms: C3_3  and  C4_4 
REMARK    2  A    between atoms: C3_3  and  O1_17 
REMARK    3  A    between atoms: C11_11  and  S1_26 
REMARK    4  A    between atoms: N1_14  and  S1_26 
REMARK    5  A    between atoms: C14_16  and  O1_17 
REMARK    6  A    between atoms: N6_23  and  C17_24 
ROOT
ATOM      1  C1  <1> d          11.726  46.279  23.738  0.00  0.00     0.225 A 
ATOM      2  C2  <1> d          15.216  44.374  21.755  0.00  0.00     0.199 A 
ATOM      3  N2  <1> d          12.284  45.674  24.927  0.00  0.00    -0.177 NA
ATOM      4  C14 <1> d          13.406  45.000  24.792  0.00  0.00     0.248 A 
ATOM      5  C15 <1> d          14.022  44.783  23.523  0.00  0.00     0.169 A 
ATOM      6  N3  <1> d          15.220  44.180  23.047  0.00  0.00    -0.229 NA
ATOM      7  N4  <1> d          14.163  45.080  21.353  0.00  0.00    -0.329 N 
ATOM      8  C16 <1> d          13.483  45.331  22.441  0.00  0.00     0.167 A 
ATOM      9  N5  <1> d          12.280  46.033  22.618  0.00  0.00    -0.195 NA
ATOM     10  N6  <1> d          10.591  46.922  23.812  0.00  0.00    -0.283 N 
ATOM     11  H20 <1> d          13.940  45.359  20.419  0.00  0.00     0.168 HD
ATOM     12  H21 <1> d          10.337  47.522  23.053  0.00  0.00     0.155 HD
ENDROOT
BRANCH  10  13
ATOM     13  C17 <1> d           9.727  46.818  24.880  0.00  0.00     0.034 A 
ATOM     14  C13 <1> d           9.223  45.665  25.487  0.00  0.00     0.025 A 
ATOM     15  C12 <1> d           8.344  45.653  26.544  0.00  0.00     0.030 A 
ATOM     16  C11 <1> d           7.848  46.912  27.048  0.00  0.00     0.105 A 
ATOM     17  C10 <1> d           8.286  48.060  26.436  0.00  0.00     0.030 A 
ATOM     18  C18 <1> d           9.203  48.019  25.404  0.00  0.00     0.025 A 
BRANCH  16  19
ATOM     19  S1  <1> d           6.653  46.983  28.313  0.00  0.00     0.056 S 
ATOM     20  O2  <1> d           7.010  48.094  29.182  0.00  0.00    -0.153 OA
ATOM     21  O3  <1> d           6.455  45.697  28.974  0.00  0.00    -0.153 OA
BRANCH  19  22
ATOM     22  N1  <1> d           5.257  47.338  27.656  0.00  0.00    -0.203 NA
ATOM     23  H18 <1> d           5.280  47.117  26.681  0.00  0.00     0.144 HD
ATOM     24  H19 <1> d           5.071  48.314  27.773  0.00  0.00     0.144 HD
ENDBRANCH  19  22
ENDBRANCH  16  19
ENDBRANCH  10  13
BRANCH   4  25
ATOM     25  O1  <1> d          14.061  44.486  25.825  0.00  0.00    -0.474 OA
BRANCH  25  26
ATOM     26  C3  <1> d          13.393  43.187  26.090  0.00  0.00     0.234 C 
BRANCH  26  27
ATOM     27  C4  <1> d          13.007  43.147  27.597  0.00  0.00     0.027 C 
ATOM     28  C5  <1> d          13.101  41.757  28.287  0.00  0.00     0.007 C 
ATOM     29  C6  <1> d          12.789  41.717  29.779  0.00  0.00     0.000 C 
ATOM     30  C7  <1> d          11.339  42.346  30.077  0.00  0.00     0.000 C 
ATOM     31  C8  <1> d          11.304  43.729  29.435  0.00  0.00     0.000 C 
ATOM     32  C9  <1> d          11.643  43.798  27.902  0.00  0.00     0.007 C 
ENDBRANCH  26  27
ENDBRANCH  25  26
ENDBRANCH   4  25
TORSDOF 6
ENDMDL
MODEL 2
REMARK VINA RESULT:      -8.5      4.475      7.485
REMARK  6 active torsions:
REMARK  status: ('A' for Active; 'I' for Inactive)
REMARK    1  A    between atoms: C3_3  and  C4_4 
REMARK    2  A    between atoms: C3_3  and  O1_17 
REMARK    3  A    between atoms: C11_11  and  S1_26 
REMARK    4  A    between atoms: N1_14  and  S1_26 
REMARK    5  A    between atoms: C14_16  and  O1_17 
REMARK    6  A    between atoms: N6_23  and  C17_24 
ROOT
ATOM      1  C1  <1> d          11.840  43.330  27.873  0.00  0.00     0.225 A 
ATOM      2  C2  <1> d          11.841  43.048  32.307  0.00  0.00     0.199 A 
ATOM      3  N2  <1> d          13.130  42.691  28.000  0.00  0.00    -0.177 NA
ATOM      4  C14 <1> d          13.534  42.380  29.212  0.00  0.00     0.248 A 
ATOM      5  C15 <1> d          12.791  42.728  30.380  0.00  0.00     0.169 A 
ATOM      6  N3  <1> d          12.903  42.501  31.781  0.00  0.00    -0.229 NA
ATOM      7  N4  <1> d          11.030  43.565  31.388  0.00  0.00    -0.329 N 
ATOM      8  C16 <1> d          11.618  43.333  30.243  0.00  0.00     0.167 A 
ATOM      9  N5  <1> d          11.222  43.660  28.936  0.00  0.00    -0.195 NA
ATOM     10  N6  <1> d          11.413  43.697  26.694  0.00  0.00    -0.283 N 
ATOM     11  H20 <1> d          10.159  44.032  31.540  0.00  0.00     0.168 HD
ATOM     12  H21 <1> d          10.443  43.920  26.589  0.00  0.00     0.155 HD
ENDROOT
BRANCH  10  13
ATOM     13  C17 <1> d          12.228  43.792  25.587  0.00  0.00     0.034 A 
ATOM     14  C13 <1> d          12.846  42.767  24.866  0.00  0.00     0.025 A 
ATOM     15  C12 <1> d          13.664  42.954  23.778  0.00  0.00     0.030 A 
ATOM     16  C11 <1> d          13.966  44.304  23.361  0.00  0.00     0.105 A 
ATOM     17  C10 <1> d          13.414  45.332  24.084  0.00  0.00     0.030 A 
ATOM     18  C18 <1> d          12.565  45.089  25.144  0.00  0.00     0.025 A 
BRANCH  16  19
ATOM     19  S1  <1> d          15.076  44.631  22.059  0.00  0.00     0.056 S 
ATOM     20  O2  <1> d          16.173  45.411  22.613  0.00  0.00    -0.153 OA
ATOM     21  O3  <1> d          14.419  45.199  20.888  0.00  0.00    -0.153 OA
BRANCH  19  22
ATOM     22  N1  <1> d          15.688  43.253  21.572  0.00  0.00    -0.203 NA
ATOM     23  H18 <1> d          16.395  43.425  20.886  0.00  0.00     0.144 HD
ATOM     24  H19 <1> d          14.965  42.690  21.171  0.00  0.00     0.144 HD
ENDBRANCH  19  22
ENDBRANCH  16  19
ENDBRANCH  10  13
BRANCH   4  25
ATOM     25  O1  <1> d          14.652  41.705  29.444  0.00  0.00    -0.474 OA
BRANCH  25  26
ATOM     26  C3  <1> d          14.316  40.294  29.130  0.00  0.00     0.234 C 
BRANCH  26  27
ATOM     27  C4  <1> d          14.720  39.423  30.356  0.00  0.00     0.027 C 
ATOM     28  C5  <1> d          15.591  38.174  30.046  0.00  0.00     0.007 C 
ATOM     29  C6  <1> d          16.048  37.350  31.244  0.00  0.00     0.000 C 
ATOM     30  C7  <1> d          14.790  36.894  32.137  0.00  0.00     0.000 C 
ATOM     31  C8  <1> d          13.991  38.150  32.468  0.00  0.00     0.000 C 
ATOM     32  C9  <1> d          13.528  39.028  31.250  0.00  0.00     0.007 C 
ENDBRANCH  26  27
ENDBRANCH  25  26
ENDBRANCH   4  25
TORSDOF 6
ENDMDL
MODEL 3
REMARK VINA RESULT:      -8.4      5.383      8.961
REMARK  6 active torsions:
REMARK  status: ('A' for Active; 'I' for Inactive)
REMARK    1  A    between atoms: C3_3  and  C4_4 
REMARK    2  A    between atoms: C3_3  and  O1_17 
REMARK    3  A    between atoms: C11_11  and  S1_26 
REMARK    4  A    between atoms: N1_14  and  S1_26 
REMARK    5  A    between atoms: C14_16  and  O1_17 
REMARK    6  A    between atoms: N6_23  and  C17_24 
ROOT
ATOM      1  C1  <1> d          12.664  42.526  29.693  0.00  0.00     0.225 A 
ATOM      2  C2  <1> d          10.678  45.008  26.588  0.00  0.00     0.199 A 
ATOM      3  N2  <1> d          13.315  41.921  28.553  0.00  0.00    -0.177 NA
ATOM      4  C14 <1> d          13.025  42.404  27.364  0.00  0.00     0.248 A 
ATOM      5  C15 <1> d          12.044  43.422  27.170  0.00  0.00     0.169 A 
ATOM      6  N3  <1> d          11.550  44.183  26.073  0.00  0.00    -0.229 NA
ATOM      7  N4  <1> d          10.591  44.891  27.910  0.00  0.00    -0.329 N 
ATOM      8  C16 <1> d          11.442  43.950  28.228  0.00  0.00     0.167 A 
ATOM      9  N5  <1> d          11.766  43.404  29.480  0.00  0.00    -0.195 NA
ATOM     10  N6  <1> d          12.886  42.054  30.891  0.00  0.00    -0.283 N 
ATOM     11  H20 <1> d          10.002  45.411  28.529  0.00  0.00     0.168 HD
ATOM     12  H21 <1> d          12.621  42.612  31.676  0.00  0.00     0.155 HD
ENDROOT
BRANCH  10  13
ATOM     13  C17 <1> d          13.468  40.827  31.127  0.00  0.00     0.034 A 
ATOM     14  C13 <1> d          13.630  39.753  30.250  0.00  0.00     0.025 A 
ATOM     15  C12 <1> d          14.208  38.550  30.578  0.00  0.00     0.030 A 
ATOM     16  C11 <1> d          14.641  38.337  31.939  0.00  0.00     0.105 A 
ATOM     17  C10 <1> d          14.446  39.357  32.836  0.00  0.00     0.030 A 
ATOM     18  C18 <1> d          13.898  40.562  32.446  0.00  0.00     0.025 A 
BRANCH  16  19
ATOM     19  S1  <1> d          15.287  36.806  32.463  0.00  0.00     0.056 S 
ATOM     20  O2  <1> d          16.225  36.362  31.443  0.00  0.00    -0.153 OA
ATOM     21  O3  <1> d          14.247  35.852  32.831  0.00  0.00    -0.153 OA
BRANCH  19  22
ATOM     22  N1  <1> d          16.123  37.049  33.787  0.00  0.00    -0.203 NA
ATOM     23  H18 <1> d          15.566  37.554  34.446  0.00  0.00     0.144 HD
ATOM     24  H19 <1> d          16.945  37.577  33.571  0.00  0.00     0.144 HD
ENDBRANCH  19  22
ENDBRANCH  16  19
ENDBRANCH  10  13
BRANCH   4  25
ATOM     25  O1  <1> d          13.632  41.996  26.258  0.00  0.00    -0.474 OA
BRANCH  25  26
ATOM     26  C3  <1> d          14.947  42.686  26.269  0.00  0.00     0.234 C 
BRANCH  26  27
ATOM     27  C4  <1> d          15.040  43.558  24.984  0.00  0.00     0.027 C 
ATOM     28  C5  <1> d          14.114  43.138  23.807  0.00  0.00     0.007 C 
ATOM     29  C6  <1> d          14.148  44.023  22.567  0.00  0.00     0.000 C 
ATOM     30  C7  <1> d          15.650  44.174  22.014  0.00  0.00     0.000 C 
ATOM     31  C8  <1> d          16.517  44.641  23.178  0.00  0.00     0.000 C 
ATOM     32  C9  <1> d          16.482  43.756  24.476  0.00  0.00     0.007 C 
ENDBRANCH  26  27
ENDBRANCH  25  26
ENDBRANCH   4  25
TORSDOF 6
ENDMDL
MODEL 4
REMARK VINA RESULT:      -8.2      4.235      7.214
REMARK  6 active torsions:
REMARK  status: ('A' for Active; 'I' for Inactive)
REMARK    1  A    between atoms: C3_3  and  C4_4 
REMARK    2  A    between atoms: C3_3  and  O1_17 
REMARK    3  A    between atoms: C11_11  and  S1_26 
REMARK    4  A    between atoms: N1_14  and  S1_26 
REMARK    5  A    between atoms: C14_16  and  O1_17 
REMARK    6  A    between atoms: N6_23  and  C17_24 
ROOT
ATOM      1  C1  <1> d          14.633  42.318  26.200  0.00  0.00     0.225 A 
ATOM      2  C2  <1> d          13.903  45.319  23.005  0.00  0.00     0.199 A 
ATOM      3  N2  <1> d          13.232  42.527  26.484  0.00  0.00    -0.177 NA
ATOM      4  C14 <1> d          12.577  43.365  25.710  0.00  0.00     0.248 A 
ATOM      5  C15 <1> d          13.217  44.119  24.682  0.00  0.00     0.169 A 
ATOM      6  N3  <1> d          12.813  45.029  23.664  0.00  0.00    -0.229 NA
ATOM      7  N4  <1> d          14.962  44.657  23.463  0.00  0.00    -0.329 N 
ATOM      8  C16 <1> d          14.510  43.927  24.450  0.00  0.00     0.167 A 
ATOM      9  N5  <1> d          15.181  43.035  25.301  0.00  0.00    -0.195 NA
ATOM     10  N6  <1> d          15.338  41.528  26.966  0.00  0.00    -0.283 N 
ATOM     11  H20 <1> d          15.902  44.706  23.125  0.00  0.00     0.168 HD
ATOM     12  H21 <1> d          16.227  41.214  26.632  0.00  0.00     0.155 HD
ENDROOT
BRANCH  10  13
ATOM     13  C17 <1> d          14.920  41.105  28.208  0.00  0.00     0.034 A 
ATOM     14  C13 <1> d          14.443  41.867  29.277  0.00  0.00     0.025 A 
ATOM     15  C12 <1> d          14.063  41.361  30.497  0.00  0.00     0.030 A 
ATOM     16  C11 <1> d          14.210  39.945  30.736  0.00  0.00     0.105 A 
ATOM     17  C10 <1> d          14.727  39.178  29.722  0.00  0.00     0.030 A 
ATOM     18  C18 <1> d          15.054  39.729  28.499  0.00  0.00     0.025 A 
BRANCH  16  19
ATOM     19  S1  <1> d          13.852  39.238  32.288  0.00  0.00     0.056 S 
ATOM     20  O2  <1> d          14.401  37.890  32.285  0.00  0.00    -0.153 OA
ATOM     21  O3  <1> d          12.443  39.351  32.647  0.00  0.00    -0.153 OA
BRANCH  19  22
ATOM     22  N1  <1> d          14.636  40.055  33.396  0.00  0.00    -0.203 NA
ATOM     23  H18 <1> d          13.986  40.583  33.943  0.00  0.00     0.144 HD
ATOM     24  H19 <1> d          15.284  40.677  32.957  0.00  0.00     0.144 HD
ENDBRANCH  19  22
ENDBRANCH  16  19
ENDBRANCH  10  13
BRANCH   4  25
ATOM     25  O1  <1> d          11.269  43.562  25.813  0.00  0.00    -0.474 OA
BRANCH  25  26
ATOM     26  C3  <1> d          11.073  44.110  27.178  0.00  0.00     0.234 C 
BRANCH  26  27
ATOM     27  C4  <1> d          10.194  45.389  27.058  0.00  0.00     0.027 C 
ATOM     28  C5  <1> d           9.307  45.724  28.290  0.00  0.00     0.007 C 
ATOM     29  C6  <1> d           8.491  47.009  28.210  0.00  0.00     0.000 C 
ATOM     30  C7  <1> d           7.570  47.020  26.891  0.00  0.00     0.000 C 
ATOM     31  C8  <1> d           8.481  46.745  25.700  0.00  0.00     0.000 C 
ATOM     32  C9  <1> d           9.349  45.437  25.769  0.00  0.00     0.007 C 
ENDBRANCH  26  27
ENDBRANCH  25  26
ENDBRANCH   4  25
TORSDOF 6
ENDMDL
MODEL 5
REMARK VINA RESULT:      -8.1      2.643      5.218
REMARK  6 active torsions:
REMARK  status: ('A' for Active; 'I' for Inactive)
REMARK    1  A    between atoms: C3_3  and  C4_4 
REMARK    2  A    between atoms: C3_3  and  O1_17 
REMARK    3  A    between atoms: C11_11  and  S1_26 
REMARK    4  A    between atoms: N1_14  and  S1_26 
REMARK    5  A    between atoms: C14_16  and  O1_17 
REMARK    6  A    between atoms: N6_23  and  C17_24 
ROOT
ATOM      1  C1  <1> d          10.642  44.466  28.346  0.00  0.00     0.225 A 
ATOM      2  C2  <1> d          14.373  42.107  27.837  0.00  0.00     0.199 A 
ATOM      3  N2  <1> d          10.881  44.826  26.967  0.00  0.00    -0.177 NA
ATOM      4  C14 <1> d          11.928  44.294  26.375  0.00  0.00     0.248 A 
ATOM      5  C15 <1> d          12.858  43.461  27.068  0.00  0.00     0.169 A 
ATOM      6  N3  <1> d          14.015  42.703  26.731  0.00  0.00    -0.229 NA
ATOM      7  N4  <1> d          13.542  42.366  28.843  0.00  0.00    -0.329 N 
ATOM      8  C16 <1> d          12.631  43.159  28.340  0.00  0.00     0.167 A 
ATOM      9  N5  <1> d          11.512  43.753  28.944  0.00  0.00    -0.195 NA
ATOM     10  N6  <1> d           9.639  45.001  28.990  0.00  0.00    -0.283 N 
ATOM     11  H20 <1> d          13.600  42.026  29.782  0.00  0.00     0.168 HD
ATOM     12  H21 <1> d           9.349  44.580  29.849  0.00  0.00     0.155 HD
ENDROOT
BRANCH  10  13
ATOM     13  C17 <1> d           8.961  46.116  28.547  0.00  0.00     0.034 A 
ATOM     14  C13 <1> d           8.652  46.487  27.236  0.00  0.00     0.025 A 
ATOM     15  C12 <1> d           7.983  47.634  26.881  0.00  0.00     0.030 A 
ATOM     16  C11 <1> d           7.609  48.568  27.917  0.00  0.00     0.105 A 
ATOM     17  C10 <1> d           7.946  48.254  29.209  0.00  0.00     0.030 A 
ATOM     18  C18 <1> d           8.582  47.068  29.518  0.00  0.00     0.025 A 
BRANCH  16  19
ATOM     19  S1  <1> d           6.853  50.093  27.543  0.00  0.00     0.056 S 
ATOM     20  O2  <1> d           7.516  51.110  28.345  0.00  0.00    -0.153 OA
ATOM     21  O3  <1> d           5.399  50.043  27.652  0.00  0.00    -0.153 OA
BRANCH  19  22
ATOM     22  N1  <1> d           7.150  50.433  26.025  0.00  0.00    -0.203 NA
ATOM     23  H18 <1> d           6.710  49.754  25.438  0.00  0.00     0.144 HD
ATOM     24  H19 <1> d           8.138  50.421  25.867  0.00  0.00     0.144 HD
ENDBRANCH  19  22
ENDBRANCH  16  19
ENDBRANCH  10  13
BRANCH   4  25
ATOM     25  O1  <1> d          12.193  44.473  25.088  0.00  0.00    -0.474 OA
BRANCH  25  26
ATOM     26  C3  <1> d          13.158  45.599  25.052  0.00  0.00     0.234 C 
BRANCH  26  27
ATOM     27  C4  <1> d          14.033  45.437  23.774  0.00  0.00     0.027 C 
ATOM     28  C5  <1> d          13.260  45.214  22.444  0.00  0.00     0.007 C 
ATOM     29  C6  <1> d          14.102  45.119  21.177  0.00  0.00     0.000 C 
ATOM     30  C7  <1> d          15.225  43.977  21.321  0.00  0.00     0.000 C 
ATOM     31  C8  <1> d          15.998  44.262  22.604  0.00  0.00     0.000 C 
ATOM     32  C9  <1> d          15.149  44.384  23.921  0.00  0.00     0.007 C 
ENDBRANCH  26  27
ENDBRANCH  25  26
ENDBRANCH   4  25
TORSDOF 6
ENDMDL
MODEL 6
REMARK VINA RESULT:      -7.9      2.948      5.472
REMARK  6 active torsions:
REMARK  status: ('A' for Active; 'I' for Inactive)
REMARK    1  A    between atoms: C3_3  and  C4_4 
REMARK    2  A    between atoms: C3_3  and  O1_17 
REMARK    3  A    between atoms: C11_11  and  S1_26 
REMARK    4  A    between atoms: N1_14  and  S1_26 
REMARK    5  A    between atoms: C14_16  and  O1_17 
REMARK    6  A    between atoms: N6_23  and  C17_24 
ROOT
ATOM      1  C1  <1> d          13.464  42.799  25.429  0.00  0.00     0.225 A 
ATOM      2  C2  <1> d          15.157  44.345  21.623  0.00  0.00     0.199 A 
ATOM      3  N2  <1> d          12.848  44.105  25.490  0.00  0.00    -0.177 NA
ATOM      4  C14 <1> d          13.070  44.926  24.487  0.00  0.00     0.248 A 
ATOM      5  C15 <1> d          13.952  44.601  23.412  0.00  0.00     0.169 A 
ATOM      6  N3  <1> d          14.354  45.206  22.188  0.00  0.00    -0.229 NA
ATOM      7  N4  <1> d          15.279  43.227  22.333  0.00  0.00    -0.329 N 
ATOM      8  C16 <1> d          14.523  43.404  23.385  0.00  0.00     0.167 A 
ATOM      9  N5  <1> d          14.274  42.557  24.477  0.00  0.00    -0.195 NA
ATOM     10  N6  <1> d          13.308  41.963  26.421  0.00  0.00    -0.283 N 
ATOM     11  H20 <1> d          15.831  42.423  22.110  0.00  0.00     0.168 HD
ATOM     12  H21 <1> d          13.536  41.001  26.271  0.00  0.00     0.155 HD
ENDROOT
BRANCH  10  13
ATOM     13  C17 <1> d          12.844  42.337  27.664  0.00  0.00     0.034 A 
ATOM     14  C13 <1> d          11.769  43.170  27.981  0.00  0.00     0.025 A 
ATOM     15  C12 <1> d          11.385  43.508  29.257  0.00  0.00     0.030 A 
ATOM     16  C11 <1> d          12.169  43.022  30.368  0.00  0.00     0.105 A 
ATOM     17  C10 <1> d          13.263  42.244  30.083  0.00  0.00     0.030 A 
ATOM     18  C18 <1> d          13.582  41.899  28.785  0.00  0.00     0.025 A 
BRANCH  16  19
ATOM     19  S1  <1> d          11.815  43.488  32.009  0.00  0.00     0.056 S 
ATOM     20  O2  <1> d          10.973  42.448  32.581  0.00  0.00    -0.153 OA
ATOM     21  O3  <1> d          11.301  44.850  32.109  0.00  0.00    -0.153 OA
BRANCH  19  22
ATOM     22  N1  <1> d          13.172  43.489  32.827  0.00  0.00    -0.203 NA
ATOM     23  H18 <1> d          13.669  42.640  32.650  0.00  0.00     0.144 HD
ATOM     24  H19 <1> d          12.972  43.562  33.804  0.00  0.00     0.144 HD
ENDBRANCH  19  22
ENDBRANCH  16  19
ENDBRANCH  10  13
BRANCH   4  25
ATOM     25  O1  <1> d          12.482  46.110  24.386  0.00  0.00    -0.474 OA
BRANCH  25  26
ATOM     26  C3  <1> d          11.059  45.804  24.094  0.00  0.00     0.234 C 
BRANCH  26  27
ATOM     27  C4  <1> d          10.201  46.345  25.275  0.00  0.00     0.027 C 
ATOM     28  C5  <1> d           9.345  45.292  26.033  0.00  0.00     0.007 C 
ATOM     29  C6  <1> d           8.552  45.798  27.233  0.00  0.00     0.000 C 
ATOM     30  C7  <1> d           7.606  47.029  26.813  0.00  0.00     0.000 C 
ATOM     31  C8  <1> d           8.488  48.065  26.124  0.00  0.00     0.000 C 
ATOM     32  C9  <1> d           9.332  47.562  24.898  0.00  0.00     0.007 C 
ENDBRANCH  26  27
ENDBRANCH  25  26
ENDBRANCH   4  25
TORSDOF 6
ENDMDL
MODEL 7
REMARK VINA RESULT:      -7.7      2.817      6.766
REMARK  6 active torsions:
REMARK  status: ('A' for Active; 'I' for Inactive)
REMARK    1  A    between atoms: C3_3  and  C4_4 
REMARK    2  A    between atoms: C3_3  and  O1_17 
REMARK    3  A    between atoms: C11_11  and  S1_26 
REMARK    4  A    between atoms: N1_14  and  S1_26 
REMARK    5  A    between atoms: C14_16  and  O1_17 
REMARK    6  A    between atoms: N6_23  and  C17_24 
ROOT
ATOM      1  C1  <1> d           9.591  46.390  25.273  0.00  0.00     0.225 A 
ATOM      2  C2  <1> d           6.798  47.801  28.427  0.00  0.00     0.199 A 
ATOM      3  N2  <1> d          10.121  45.574  26.342  0.00  0.00    -0.177 NA
ATOM      4  C14 <1> d           9.533  45.660  27.515  0.00  0.00     0.248 A 
ATOM      5  C15 <1> d           8.471  46.578  27.775  0.00  0.00     0.169 A 
ATOM      6  N3  <1> d           7.606  46.874  28.867  0.00  0.00    -0.229 NA
ATOM      7  N4  <1> d           7.021  48.102  27.151  0.00  0.00    -0.329 N 
ATOM      8  C16 <1> d           8.013  47.332  26.784  0.00  0.00     0.167 A 
ATOM      9  N5  <1> d           8.670  47.224  25.549  0.00  0.00    -0.195 NA
ATOM     10  N6  <1> d          10.167  46.372  24.100  0.00  0.00    -0.283 N 
ATOM     11  H20 <1> d           6.535  48.774  26.592  0.00  0.00     0.168 HD
ATOM     12  H21 <1> d           9.667  46.751  23.321  0.00  0.00     0.155 HD
ENDROOT
BRANCH  10  13
ATOM     13  C17 <1> d          11.427  45.860  23.881  0.00  0.00     0.034 A 
ATOM     14  C13 <1> d          12.253  45.161  24.764  0.00  0.00     0.025 A 
ATOM     15  C12 <1> d          13.513  44.700  24.466  0.00  0.00     0.030 A 
ATOM     16  C11 <1> d          14.069  44.993  23.166  0.00  0.00     0.105 A 
ATOM     17  C10 <1> d          13.300  45.724  22.295  0.00  0.00     0.030 A 
ATOM     18  C18 <1> d          12.023  46.129  22.629  0.00  0.00     0.025 A 
BRANCH  16  19
ATOM     19  S1  <1> d          15.696  44.537  22.744  0.00  0.00     0.056 S 
ATOM     20  O2  <1> d          16.499  45.751  22.750  0.00  0.00    -0.153 OA
ATOM     21  O3  <1> d          15.759  43.738  21.525  0.00  0.00    -0.153 OA
BRANCH  19  22
ATOM     22  N1  <1> d          16.261  43.602  23.891  0.00  0.00    -0.203 NA
ATOM     23  H18 <1> d          15.621  42.851  24.055  0.00  0.00     0.144 HD
ATOM     24  H19 <1> d          16.374  44.133  24.730  0.00  0.00     0.144 HD
ENDBRANCH  19  22
ENDBRANCH  16  19
ENDBRANCH  10  13
BRANCH   4  25
ATOM     25  O1  <1> d           9.867  44.889  28.542  0.00  0.00    -0.474 OA
BRANCH  25  26
ATOM     26  C3  <1> d          11.221  44.379  28.210  0.00  0.00     0.234 C 
BRANCH  26  27
ATOM     27  C4  <1> d          11.460  43.083  29.038  0.00  0.00     0.027 C 
ATOM     28  C5  <1> d          10.857  43.070  30.471  0.00  0.00     0.007 C 
ATOM     29  C6  <1> d          11.027  41.782  31.268  0.00  0.00     0.000 C 
ATOM     30  C7  <1> d          12.578  41.365  31.356  0.00  0.00     0.000 C 
ATOM     31  C8  <1> d          13.119  41.333  29.931  0.00  0.00     0.000 C 
ATOM     32  C9  <1> d          12.937  42.643  29.082  0.00  0.00     0.007 C 
ENDBRANCH  26  27
ENDBRANCH  25  26
ENDBRANCH   4  25
TORSDOF 6
ENDMDL
MODEL 8
REMARK VINA RESULT:      -7.5      1.005      1.474
REMARK  6 active torsions:
REMARK  status: ('A' for Active; 'I' for Inactive)
REMARK    1  A    between atoms: C3_3  and  C4_4 
REMARK    2  A    between atoms: C3_3  and  O1_17 
REMARK    3  A    between atoms: C11_11  and  S1_26 
REMARK    4  A    between atoms: N1_14  and  S1_26 
REMARK    5  A    between atoms: C14_16  and  O1_17 
REMARK    6  A    between atoms: N6_23  and  C17_24 
ROOT
ATOM      1  C1  <1> d          11.545  46.166  24.179  0.00  0.00     0.225 A 
ATOM      2  C2  <1> d          15.146  43.885  22.924  0.00  0.00     0.199 A 
ATOM      3  N2  <1> d          11.958  45.761  25.504  0.00  0.00    -0.177 NA
ATOM      4  C14 <1> d          13.061  45.054  25.604  0.00  0.00     0.248 A 
ATOM      5  C15 <1> d          13.794  44.612  24.461  0.00  0.00     0.169 A 
ATOM      6  N3  <1> d          15.011  43.913  24.222  0.00  0.00    -0.229 NA
ATOM      7  N4  <1> d          14.165  44.532  22.300  0.00  0.00    -0.329 N 
ATOM      8  C16 <1> d          13.388  44.978  23.252  0.00  0.00     0.167 A 
ATOM      9  N5  <1> d          12.200  45.723  23.181  0.00  0.00    -0.195 NA
ATOM     10  N6  <1> d          10.433  46.835  24.023  0.00  0.00    -0.283 N 
ATOM     11  H20 <1> d          14.048  44.653  21.314  0.00  0.00     0.168 HD
ATOM     12  H21 <1> d          10.279  47.301  23.152  0.00  0.00     0.155 HD
ENDROOT
BRANCH  10  13
ATOM     13  C17 <1> d           9.462  46.930  24.996  0.00  0.00     0.034 A 
ATOM     14  C13 <1> d           8.904  48.077  25.564  0.00  0.00     0.025 A 
ATOM     15  C12 <1> d           7.947  48.081  26.551  0.00  0.00     0.030 A 
ATOM     16  C11 <1> d           7.508  46.817  27.096  0.00  0.00     0.105 A 
ATOM     17  C10 <1> d           8.079  45.675  26.593  0.00  0.00     0.030 A 
ATOM     18  C18 <1> d           9.007  45.724  25.572  0.00  0.00     0.025 A 
BRANCH  16  19
ATOM     19  S1  <1> d           6.378  46.736  28.419  0.00  0.00     0.056 S 
ATOM     20  O2  <1> d           6.566  45.447  29.068  0.00  0.00    -0.153 OA
ATOM     21  O3  <1> d           5.012  47.052  28.013  0.00  0.00    -0.153 OA
BRANCH  19  22
ATOM     22  N1  <1> d           6.771  47.849  29.475  0.00  0.00    -0.203 NA
ATOM     23  H18 <1> d           7.082  48.669  28.996  0.00  0.00     0.144 HD
ATOM     24  H19 <1> d           7.505  47.507  30.062  0.00  0.00     0.144 HD
ENDBRANCH  19  22
ENDBRANCH  16  19
ENDBRANCH  10  13
BRANCH   4  25
ATOM     25  O1  <1> d          13.589  44.710  26.771  0.00  0.00    -0.474 OA
BRANCH  25  26
ATOM     26  C3  <1> d          12.917  43.436  27.131  0.00  0.00     0.234 C 
BRANCH  26  27
ATOM     27  C4  <1> d          12.675  43.442  28.669  0.00  0.00     0.027 C 
ATOM     28  C5  <1> d          13.027  42.126  29.419  0.00  0.00     0.007 C 
ATOM     29  C6  <1> d          12.857  42.141  30.933  0.00  0.00     0.000 C 
ATOM     30  C7  <1> d          11.363  42.582  31.336  0.00  0.00     0.000 C 
ATOM     31  C8  <1> d          11.075  43.902  30.629  0.00  0.00     0.000 C 
ATOM     32  C9  <1> d          11.264  43.917  29.069  0.00  0.00     0.007 C 
ENDBRANCH  26  27
ENDBRANCH  25  26
ENDBRANCH   4  25
TORSDOF 6
ENDMDL
MODEL 9
REMARK VINA RESULT:      -7.4      4.026      6.837
REMARK  6 active torsions:
REMARK  status: ('A' for Active; 'I' for Inactive)
REMARK    1  A    between atoms: C3_3  and  C4_4 
REMARK    2  A    between atoms: C3_3  and  O1_17 
REMARK    3  A    between atoms: C11_11  and  S1_26 
REMARK    4  A    between atoms: N1_14  and  S1_26 
REMARK    5  A    between atoms: C14_16  and  O1_17 
REMARK    6  A    between atoms: N6_23  and  C17_24 
ROOT
ATOM      1  C1  <1> d          14.955  41.418  27.360  0.00  0.00     0.225 A 
ATOM      2  C2  <1> d          15.257  38.460  30.662  0.00  0.00     0.199 A 
ATOM      3  N2  <1> d          14.197  42.173  28.332  0.00  0.00    -0.177 NA
ATOM      4  C14 <1> d          14.059  41.650  29.530  0.00  0.00     0.248 A 
ATOM      5  C15 <1> d          14.549  40.350  29.860  0.00  0.00     0.169 A 
ATOM      6  N3  <1> d          14.622  39.540  31.028  0.00  0.00    -0.229 NA
ATOM      7  N4  <1> d          15.643  38.507  29.390  0.00  0.00    -0.329 N 
ATOM      8  C16 <1> d          15.225  39.664  28.947  0.00  0.00     0.167 A 
ATOM      9  N5  <1> d          15.344  40.247  27.675  0.00  0.00    -0.195 NA
ATOM     10  N6  <1> d          15.085  41.875  26.143  0.00  0.00    -0.283 N 
ATOM     11  H20 <1> d          16.144  37.807  28.881  0.00  0.00     0.168 HD
ATOM     12  H21 <1> d          15.789  41.472  25.558  0.00  0.00     0.155 HD
ENDROOT
BRANCH  10  13
ATOM     13  C17 <1> d          14.303  42.884  25.624  0.00  0.00     0.034 A 
ATOM     14  C13 <1> d          12.922  43.062  25.730  0.00  0.00     0.025 A 
ATOM     15  C12 <1> d          12.216  44.095  25.160  0.00  0.00     0.030 A 
ATOM     16  C11 <1> d          12.925  45.050  24.341  0.00  0.00     0.105 A 
ATOM     17  C10 <1> d          14.275  44.870  24.176  0.00  0.00     0.030 A 
ATOM     18  C18 <1> d          14.944  43.839  24.805  0.00  0.00     0.025 A 
BRANCH  16  19
ATOM     19  S1  <1> d          12.091  46.327  23.498  0.00  0.00     0.056 S 
ATOM     20  O2  <1> d          10.706  46.305  23.943  0.00  0.00    -0.153 OA
ATOM     21  O3  <1> d          12.297  46.276  22.054  0.00  0.00    -0.153 OA
BRANCH  19  22
ATOM     22  N1  <1> d          12.706  47.711  23.962  0.00  0.00    -0.203 NA
ATOM     23  H18 <1> d          12.096  48.455  23.690  0.00  0.00     0.144 HD
ATOM     24  H19 <1> d          13.601  47.839  23.534  0.00  0.00     0.144 HD
ENDBRANCH  19  22
ENDBRANCH  16  19
ENDBRANCH  10  13
BRANCH   4  25
ATOM     25  O1  <1> d          13.470  42.293  30.529  0.00  0.00    -0.474 OA
BRANCH  25  26
ATOM     26  C3  <1> d          12.105  42.600  30.032  0.00  0.00     0.234 C 
BRANCH  26  27
ATOM     27  C4  <1> d          11.089  41.814  30.911  0.00  0.00     0.027 C 
ATOM     28  C5  <1> d           9.738  42.530  31.194  0.00  0.00     0.007 C 
ATOM     29  C6  <1> d           8.709  41.744  31.999  0.00  0.00     0.000 C 
ATOM     30  C7  <1> d           9.333  41.247  33.395  0.00  0.00     0.000 C 
ATOM     31  C8  <1> d          10.625  40.502  33.074  0.00  0.00     0.000 C 
ATOM     32  C9  <1> d          11.693  41.284  32.227  0.00  0.00     0.007 C 
ENDBRANCH  26  27
ENDBRANCH  25  26
ENDBRANCH   4  25
TORSDOF 6
ENDMDL
MODEL 10
REMARK VINA RESULT:      -7.4      4.589      7.105
REMARK  6 active torsions:
REMARK  status: ('A' for Active; 'I' for Inactive)
REMARK    1  A    between atoms: C3_3  and  C4_4 
REMARK    2  A    between atoms: C3_3  and  O1_17 
REMARK    3  A    between atoms: C11_11  and  S1_26 
REMARK    4  A    between atoms: N1_14  and  S1_26 
REMARK    5  A    between atoms: C14_16  and  O1_17 
REMARK    6  A    between atoms: N6_23  and  C17_24 
ROOT
ATOM      1  C1  <1> d          13.309  40.295  30.486  0.00  0.00     0.225 A 
ATOM      2  C2  <1> d          16.642  38.117  28.513  0.00  0.00     0.199 A 
ATOM      3  N2  <1> d          13.400  41.147  29.321  0.00  0.00    -0.177 NA
ATOM      4  C14 <1> d          14.289  40.827  28.406  0.00  0.00     0.248 A 
ATOM      5  C15 <1> d          15.202  39.743  28.572  0.00  0.00     0.169 A 
ATOM      6  N3  <1> d          16.208  39.111  27.786  0.00  0.00    -0.229 NA
ATOM      7  N4  <1> d          15.989  38.012  29.668  0.00  0.00    -0.329 N 
ATOM      8  C16 <1> d          15.116  38.986  29.658  0.00  0.00     0.167 A 
ATOM      9  N5  <1> d          14.164  39.361  30.619  0.00  0.00    -0.195 NA
ATOM     10  N6  <1> d          12.471  40.595  31.442  0.00  0.00    -0.283 N 
ATOM     11  H20 <1> d          16.135  37.334  30.389  0.00  0.00     0.168 HD
ATOM     12  H21 <1> d          12.253  39.891  32.119  0.00  0.00     0.155 HD
ENDROOT
BRANCH  10  13
ATOM     13  C17 <1> d          11.871  41.829  31.567  0.00  0.00     0.034 A 
ATOM     14  C13 <1> d          12.368  42.985  32.174  0.00  0.00     0.025 A 
ATOM     15  C12 <1> d          11.689  44.176  32.271  0.00  0.00     0.030 A 
ATOM     16  C11 <1> d          10.339  44.248  31.764  0.00  0.00     0.105 A 
ATOM     17  C10 <1> d           9.805  43.111  31.210  0.00  0.00     0.030 A 
ATOM     18  C18 <1> d          10.545  41.951  31.099  0.00  0.00     0.025 A 
BRANCH  16  19
ATOM     19  S1  <1> d           9.372  45.686  31.941  0.00  0.00     0.056 S 
ATOM     20  O2  <1> d           8.480  45.470  33.071  0.00  0.00    -0.153 OA
ATOM     21  O3  <1> d           8.732  46.092  30.694  0.00  0.00    -0.153 OA
BRANCH  19  22
ATOM     22  N1  <1> d          10.332  46.884  32.331  0.00  0.00    -0.203 NA
ATOM     23  H18 <1> d          11.163  46.522  32.753  0.00  0.00     0.144 HD
ATOM     24  H19 <1> d           9.866  47.489  32.978  0.00  0.00     0.144 HD
ENDBRANCH  19  22
ENDBRANCH  16  19
ENDBRANCH  10  13
BRANCH   4  25
ATOM     25  O1  <1> d          14.396  41.475  27.253  0.00  0.00    -0.474 OA
BRANCH  25  26
ATOM     26  C3  <1> d          13.722  42.777  27.485  0.00  0.00     0.234 C 
BRANCH  26  27
ATOM     27  C4  <1> d          14.142  43.742  26.339  0.00  0.00     0.027 C 
ATOM     28  C5  <1> d          12.982  44.464  25.597  0.00  0.00     0.007 C 
ATOM     29  C6  <1> d          13.383  45.462  24.517  0.00  0.00     0.000 C 
ATOM     30  C7  <1> d          14.341  44.769  23.427  0.00  0.00     0.000 C 
ATOM     31  C8  <1> d          15.495  44.121  24.185  0.00  0.00     0.000 C 
ATOM     32  C9  <1> d          15.107  43.105  25.318  0.00  0.00     0.007 C 
ENDBRANCH  26  27
ENDBRANCH  25  26
ENDBRANCH   4  25
TORSDOF 6
ENDMDL
