MODEL 1
REMARK VINA RESULT:     -10.0      0.000      0.000
REMARK  6 active torsions:
REMARK  status: ('A' for Active; 'I' for Inactive)
REMARK    1  A    between atoms: C2_2  and  O3_21 
REMARK       I    between atoms: C3_4  and  N5_10 
REMARK    2  A    between atoms: N5_10  and  C6_11 
REMARK    3  A    between atoms: C9_14  and  S1_15 
REMARK    4  A    between atoms: S1_15  and  N6_18 
REMARK    5  A    between atoms: O3_21  and  C12_22 
REMARK    6  A    between atoms: C12_22  and  C13_23 
ROOT
ATOM      1  C1   11 d         -13.152 207.683 115.448  0.00  0.00     0.158 A 
ATOM      2  C2   11 d         -13.437 207.632 114.083  0.00  0.00     0.216 A 
ATOM      3  N1   11 d         -12.416 207.927 113.214  0.00  0.00    -0.035 NA
ATOM      4  C3   11 d         -11.148 208.235 113.643  0.00  0.00     0.731 A 
ATOM      5  N2   11 d         -10.880 208.269 114.990  0.00  0.00    -0.042 NA
ATOM      6  C4   11 d         -11.881 207.991 115.861  0.00  0.00     0.181 A 
ATOM      7  N3   11 d         -11.867 207.969 117.200  0.00  0.00    -0.333 N 
ATOM      8  C5   11 d         -13.122 207.651 117.612  0.00  0.00     0.209 A 
ATOM      9  N4   11 d         -13.926 207.474 116.533  0.00  0.00    -0.236 NA
ATOM     10  N5   11 d         -10.196 208.571 112.699  0.00  0.00    -0.188 N 
ATOM     11  H1   11 d         -11.032 208.166 117.809  0.00  0.00     0.168 HD
ATOM     12  H3   11 d         -10.496 208.690 111.757  0.00  0.00     0.184 HD
ENDROOT
BRANCH  10  13
ATOM     13  C6   11 d          -8.852 208.764 112.980  0.00  0.00     0.049 A 
ATOM     14  C7   11 d          -7.891 208.242 112.093  0.00  0.00     0.031 A 
ATOM     15  C8   11 d          -6.522 208.413 112.344  0.00  0.00     0.027 A 
ATOM     16  C9   11 d          -6.095 209.099 113.493  0.00  0.00     0.074 A 
ATOM     17  C10  11 d          -7.046 209.601 114.396  0.00  0.00     0.027 A 
ATOM     18  C11  11 d          -8.417 209.434 114.144  0.00  0.00     0.031 A 
BRANCH  16  19
ATOM     19  S1   11 d          -4.346 209.345 113.822  0.00  0.00     0.239 S 
ATOM     20  O1   11 d          -3.579 208.066 113.480  0.00  0.00    -0.206 OA
ATOM     21  O2   11 d          -4.116 209.616 115.311  0.00  0.00    -0.206 OA
BRANCH  19  22
ATOM     22  N6   11 d          -3.675 210.672 112.899  0.00  0.00    -0.225 NA
ATOM     23  H6   11 d          -4.506 211.242 112.543  0.00  0.00     0.136 HD
ATOM     24  H7   11 d          -3.154 211.297 113.590  0.00  0.00     0.136 HD
ENDBRANCH  19  22
ENDBRANCH  16  19
ENDBRANCH  10  13
BRANCH   2  25
ATOM     25  O3   11 d         -14.764 207.370 113.644  0.00  0.00    -0.332 OA
BRANCH  25  26
ATOM     26  C12  11 d         -15.086 205.951 113.667  0.00  0.00     0.182 C 
BRANCH  26  27
ATOM     27  C13  11 d         -15.795 205.554 112.358  0.00  0.00     0.010 C 
ATOM     28  C14  11 d         -14.887 204.727 111.419  0.00  0.00     0.007 C 
ATOM     29  C15  11 d         -13.811 205.577 110.725  0.00  0.00     0.000 C 
ATOM     30  C16  11 d         -14.434 206.762 109.975  0.00  0.00     0.000 C 
ATOM     31  C17  11 d         -15.322 207.615 110.890  0.00  0.00     0.000 C 
ATOM     32  C18  11 d         -16.388 206.766 111.600  0.00  0.00     0.007 C 
ENDBRANCH  26  27
ENDBRANCH  25  26
ENDBRANCH   2  25
TORSDOF 6
ENDMDL
MODEL 2
REMARK VINA RESULT:      -9.3      4.467      7.828
REMARK  6 active torsions:
REMARK  status: ('A' for Active; 'I' for Inactive)
REMARK    1  A    between atoms: C2_2  and  O3_21 
REMARK       I    between atoms: C3_4  and  N5_10 
REMARK    2  A    between atoms: N5_10  and  C6_11 
REMARK    3  A    between atoms: C9_14  and  S1_15 
REMARK    4  A    between atoms: S1_15  and  N6_18 
REMARK    5  A    between atoms: O3_21  and  C12_22 
REMARK    6  A    between atoms: C12_22  and  C13_23 
ROOT
ATOM      1  C1   11 d         -11.329 207.545 114.559  0.00  0.00     0.158 A 
ATOM      2  C2   11 d         -12.103 206.564 113.939  0.00  0.00     0.216 A 
ATOM      3  N1   11 d         -12.941 205.824 114.736  0.00  0.00    -0.035 NA
ATOM      4  C3   11 d         -13.053 206.039 116.088  0.00  0.00     0.731 A 
ATOM      5  N2   11 d         -12.294 207.018 116.682  0.00  0.00    -0.042 NA
ATOM      6  C4   11 d         -11.453 207.749 115.910  0.00  0.00     0.181 A 
ATOM      7  N3   11 d         -10.617 208.738 116.255  0.00  0.00    -0.333 N 
ATOM      8  C5   11 d          -9.980 209.141 115.125  0.00  0.00     0.209 A 
ATOM      9  N4   11 d         -10.413 208.406 114.069  0.00  0.00    -0.236 NA
ATOM     10  N5   11 d         -13.881 205.210 116.821  0.00  0.00    -0.188 N 
ATOM     11  H1   11 d         -10.487 209.120 117.226  0.00  0.00     0.168 HD
ATOM     12  H3   11 d         -14.274 204.418 116.362  0.00  0.00     0.184 HD
ENDROOT
BRANCH  10  13
ATOM     13  C6   11 d         -14.194 205.403 118.158  0.00  0.00     0.049 A 
ATOM     14  C7   11 d         -14.565 204.290 118.936  0.00  0.00     0.031 A 
ATOM     15  C8   11 d         -14.892 204.444 120.291  0.00  0.00     0.027 A 
ATOM     16  C9   11 d         -14.865 205.718 120.884  0.00  0.00     0.074 A 
ATOM     17  C10  11 d         -14.522 206.837 120.108  0.00  0.00     0.027 A 
ATOM     18  C11  11 d         -14.190 206.683 118.753  0.00  0.00     0.031 A 
BRANCH  16  19
ATOM     19  S1   11 d         -15.262 205.933 122.623  0.00  0.00     0.239 S 
ATOM     20  O1   11 d         -15.241 204.572 123.321  0.00  0.00    -0.206 OA
ATOM     21  O2   11 d         -16.679 206.491 122.781  0.00  0.00    -0.206 OA
BRANCH  19  22
ATOM     22  N6   11 d         -14.141 207.004 123.434  0.00  0.00    -0.225 NA
ATOM     23  H6   11 d         -14.010 206.614 124.420  0.00  0.00     0.136 HD
ATOM     24  H7   11 d         -13.201 206.900 122.939  0.00  0.00     0.136 HD
ENDBRANCH  19  22
ENDBRANCH  16  19
ENDBRANCH  10  13
BRANCH   2  25
ATOM     25  O3   11 d         -11.941 206.305 112.550  0.00  0.00    -0.332 OA
BRANCH  25  26
ATOM     26  C12  11 d         -12.848 207.093 111.729  0.00  0.00     0.182 C 
BRANCH  26  27
ATOM     27  C13  11 d         -13.621 206.169 110.769  0.00  0.00     0.010 C 
ATOM     28  C14  11 d         -14.612 206.943 109.870  0.00  0.00     0.007 C 
ATOM     29  C15  11 d         -15.865 207.411 110.627  0.00  0.00     0.000 C 
ATOM     30  C16  11 d         -16.566 206.239 111.325  0.00  0.00     0.000 C 
ATOM     31  C17  11 d         -15.610 205.466 112.244  0.00  0.00     0.000 C 
ATOM     32  C18  11 d         -14.347 205.012 111.496  0.00  0.00     0.007 C 
ENDBRANCH  26  27
ENDBRANCH  25  26
ENDBRANCH   2  25
TORSDOF 6
ENDMDL
MODEL 3
REMARK VINA RESULT:      -9.1      3.268      4.043
REMARK  6 active torsions:
REMARK  status: ('A' for Active; 'I' for Inactive)
REMARK    1  A    between atoms: C2_2  and  O3_21 
REMARK       I    between atoms: C3_4  and  N5_10 
REMARK    2  A    between atoms: N5_10  and  C6_11 
REMARK    3  A    between atoms: C9_14  and  S1_15 
REMARK    4  A    between atoms: S1_15  and  N6_18 
REMARK    5  A    between atoms: O3_21  and  C12_22 
REMARK    6  A    between atoms: C12_22  and  C13_23 
ROOT
ATOM      1  C1   11 d         -14.723 204.957 116.165  0.00  0.00     0.158 A 
ATOM      2  C2   11 d         -14.892 205.993 115.245  0.00  0.00     0.216 A 
ATOM      3  N1   11 d         -13.977 207.016 115.273  0.00  0.00    -0.035 NA
ATOM      4  C3   11 d         -12.913 207.031 116.141  0.00  0.00     0.731 A 
ATOM      5  N2   11 d         -12.753 205.997 117.031  0.00  0.00    -0.042 NA
ATOM      6  C4   11 d         -13.654 204.985 117.024  0.00  0.00     0.181 A 
ATOM      7  N3   11 d         -13.714 203.888 117.790  0.00  0.00    -0.333 N 
ATOM      8  C5   11 d         -14.814 203.188 117.408  0.00  0.00     0.209 A 
ATOM      9  N4   11 d         -15.447 203.844 116.402  0.00  0.00    -0.236 NA
ATOM     10  N5   11 d         -12.072 208.128 116.135  0.00  0.00    -0.188 N 
ATOM     11  H1   11 d         -13.031 203.630 118.546  0.00  0.00     0.168 HD
ATOM     12  H3   11 d         -12.337 208.915 115.585  0.00  0.00     0.184 HD
ENDROOT
BRANCH  10  13
ATOM     13  C6   11 d         -10.889 208.209 116.852  0.00  0.00     0.049 A 
ATOM     14  C7   11 d          -9.669 208.231 116.150  0.00  0.00     0.031 A 
ATOM     15  C8   11 d          -8.450 208.308 116.840  0.00  0.00     0.027 A 
ATOM     16  C9   11 d          -8.435 208.352 118.244  0.00  0.00     0.074 A 
ATOM     17  C10  11 d          -9.646 208.304 118.953  0.00  0.00     0.027 A 
ATOM     18  C11  11 d         -10.866 208.231 118.264  0.00  0.00     0.031 A 
BRANCH  16  19
ATOM     19  S1   11 d          -6.885 208.471 119.145  0.00  0.00     0.239 S 
ATOM     20  O1   11 d          -5.902 209.337 118.353  0.00  0.00    -0.206 OA
ATOM     21  O2   11 d          -6.243 207.088 119.287  0.00  0.00    -0.206 OA
BRANCH  19  22
ATOM     22  N6   11 d          -7.093 209.161 120.739  0.00  0.00    -0.225 NA
ATOM     23  H6   11 d          -6.149 209.071 121.232  0.00  0.00     0.136 HD
ATOM     24  H7   11 d          -7.265 210.206 120.604  0.00  0.00     0.136 HD
ENDBRANCH  19  22
ENDBRANCH  16  19
ENDBRANCH  10  13
BRANCH   2  25
ATOM     25  O3   11 d         -16.028 206.004 114.389  0.00  0.00    -0.332 OA
BRANCH  25  26
ATOM     26  C12  11 d         -15.808 206.794 113.186  0.00  0.00     0.182 C 
BRANCH  26  27
ATOM     27  C13  11 d         -15.882 205.886 111.944  0.00  0.00     0.010 C 
ATOM     28  C14  11 d         -14.581 205.083 111.717  0.00  0.00     0.007 C 
ATOM     29  C15  11 d         -13.433 205.947 111.171  0.00  0.00     0.000 C 
ATOM     30  C16  11 d         -13.849 206.682 109.890  0.00  0.00     0.000 C 
ATOM     31  C17  11 d         -15.126 207.507 110.093  0.00  0.00     0.000 C 
ATOM     32  C18  11 d         -16.271 206.652 110.657  0.00  0.00     0.007 C 
ENDBRANCH  26  27
ENDBRANCH  25  26
ENDBRANCH   2  25
TORSDOF 6
ENDMDL
MODEL 4
REMARK VINA RESULT:      -9.1      2.517      3.266
REMARK  6 active torsions:
REMARK  status: ('A' for Active; 'I' for Inactive)
REMARK    1  A    between atoms: C2_2  and  O3_21 
REMARK       I    between atoms: C3_4  and  N5_10 
REMARK    2  A    between atoms: N5_10  and  C6_11 
REMARK    3  A    between atoms: C9_14  and  S1_15 
REMARK    4  A    between atoms: S1_15  and  N6_18 
REMARK    5  A    between atoms: O3_21  and  C12_22 
REMARK    6  A    between atoms: C12_22  and  C13_23 
ROOT
ATOM      1  C1   11 d         -12.197 207.892 114.115  0.00  0.00     0.158 A 
ATOM      2  C2   11 d         -11.452 207.636 112.963  0.00  0.00     0.216 A 
ATOM      3  N1   11 d         -10.108 207.915 113.007  0.00  0.00    -0.035 NA
ATOM      4  C3   11 d          -9.492 208.401 114.134  0.00  0.00     0.731 A 
ATOM      5  N2   11 d         -10.237 208.635 115.264  0.00  0.00    -0.042 NA
ATOM      6  C4   11 d         -11.566 208.375 115.233  0.00  0.00     0.181 A 
ATOM      7  N3   11 d         -12.490 208.528 116.192  0.00  0.00    -0.333 N 
ATOM      8  C5   11 d         -13.683 208.144 115.669  0.00  0.00     0.209 A 
ATOM      9  N4   11 d         -13.512 207.750 114.381  0.00  0.00    -0.236 NA
ATOM     10  N5   11 d          -8.145 208.704 114.070  0.00  0.00    -0.188 N 
ATOM     11  H1   11 d         -12.311 208.883 117.166  0.00  0.00     0.168 HD
ATOM     12  H3   11 d          -7.701 208.669 113.179  0.00  0.00     0.184 HD
ENDROOT
BRANCH  10  13
ATOM     13  C6   11 d          -7.373 209.063 115.164  0.00  0.00     0.049 A 
ATOM     14  C7   11 d          -7.452 208.287 116.336  0.00  0.00     0.031 A 
ATOM     15  C8   11 d          -6.690 208.620 117.465  0.00  0.00     0.027 A 
ATOM     16  C9   11 d          -5.846 209.743 117.442  0.00  0.00     0.074 A 
ATOM     17  C10  11 d          -5.780 210.537 116.285  0.00  0.00     0.027 A 
ATOM     18  C11  11 d          -6.539 210.203 115.153  0.00  0.00     0.031 A 
BRANCH  16  19
ATOM     19  S1   11 d          -4.847 210.174 118.871  0.00  0.00     0.239 S 
ATOM     20  O1   11 d          -5.194 209.242 120.034  0.00  0.00    -0.206 OA
ATOM     21  O2   11 d          -5.165 211.598 119.333  0.00  0.00    -0.206 OA
BRANCH  19  22
ATOM     22  N6   11 d          -3.132 210.059 118.544  0.00  0.00    -0.225 NA
ATOM     23  H6   11 d          -2.639 210.610 119.315  0.00  0.00     0.136 HD
ATOM     24  H7   11 d          -2.859 209.035 118.682  0.00  0.00     0.136 HD
ENDBRANCH  19  22
ENDBRANCH  16  19
ENDBRANCH  10  13
BRANCH   2  25
ATOM     25  O3   11 d         -12.104 207.190 111.781  0.00  0.00    -0.332 OA
BRANCH  25  26
ATOM     26  C12  11 d         -12.812 205.934 111.978  0.00  0.00     0.182 C 
BRANCH  26  27
ATOM     27  C13  11 d         -13.704 205.640 110.757  0.00  0.00     0.010 C 
ATOM     28  C14  11 d         -14.225 206.927 110.078  0.00  0.00     0.007 C 
ATOM     29  C15  11 d         -15.339 207.617 110.881  0.00  0.00     0.000 C 
ATOM     30  C16  11 d         -16.495 206.652 111.176  0.00  0.00     0.000 C 
ATOM     31  C17  11 d         -16.008 205.373 111.872  0.00  0.00     0.000 C 
ATOM     32  C18  11 d         -14.881 204.690 111.082  0.00  0.00     0.007 C 
ENDBRANCH  26  27
ENDBRANCH  25  26
ENDBRANCH   2  25
TORSDOF 6
ENDMDL
MODEL 5
REMARK VINA RESULT:      -9.0      5.009      8.121
REMARK  6 active torsions:
REMARK  status: ('A' for Active; 'I' for Inactive)
REMARK    1  A    between atoms: C2_2  and  O3_21 
REMARK       I    between atoms: C3_4  and  N5_10 
REMARK    2  A    between atoms: N5_10  and  C6_11 
REMARK    3  A    between atoms: C9_14  and  S1_15 
REMARK    4  A    between atoms: S1_15  and  N6_18 
REMARK    5  A    between atoms: O3_21  and  C12_22 
REMARK    6  A    between atoms: C12_22  and  C13_23 
ROOT
ATOM      1  C1   11 d         -12.299 207.212 115.603  0.00  0.00     0.158 A 
ATOM      2  C2   11 d         -13.253 206.246 115.277  0.00  0.00     0.216 A 
ATOM      3  N1   11 d         -13.898 205.622 116.316  0.00  0.00    -0.035 NA
ATOM      4  C3   11 d         -13.654 205.936 117.631  0.00  0.00     0.731 A 
ATOM      5  N2   11 d         -12.723 206.899 117.934  0.00  0.00    -0.042 NA
ATOM      6  C4   11 d         -12.069 207.516 116.920  0.00  0.00     0.181 A 
ATOM      7  N3   11 d         -11.125 208.466 116.964  0.00  0.00    -0.333 N 
ATOM      8  C5   11 d         -10.773 208.746 115.682  0.00  0.00     0.209 A 
ATOM      9  N4   11 d         -11.495 207.972 114.831  0.00  0.00    -0.236 NA
ATOM     10  N5   11 d         -14.312 205.219 118.612  0.00  0.00    -0.188 N 
ATOM     11  H1   11 d         -10.735 208.904 117.837  0.00  0.00     0.168 HD
ATOM     12  H3   11 d         -14.846 204.426 118.332  0.00  0.00     0.184 HD
ENDROOT
BRANCH  10  13
ATOM     13  C6   11 d         -14.268 205.524 119.964  0.00  0.00     0.049 A 
ATOM     14  C7   11 d         -15.238 206.395 120.496  0.00  0.00     0.031 A 
ATOM     15  C8   11 d         -15.225 206.731 121.857  0.00  0.00     0.027 A 
ATOM     16  C9   11 d         -14.233 206.210 122.704  0.00  0.00     0.074 A 
ATOM     17  C10  11 d         -13.246 205.361 122.177  0.00  0.00     0.027 A 
ATOM     18  C11  11 d         -13.260 205.020 120.815  0.00  0.00     0.031 A 
BRANCH  16  19
ATOM     19  S1   11 d         -14.211 206.613 124.455  0.00  0.00     0.239 S 
ATOM     20  O1   11 d         -13.569 205.462 125.233  0.00  0.00    -0.206 OA
ATOM     21  O2   11 d         -15.640 206.764 124.984  0.00  0.00    -0.206 OA
BRANCH  19  22
ATOM     22  N6   11 d         -13.328 208.086 124.788  0.00  0.00    -0.225 NA
ATOM     23  H6   11 d         -13.375 208.233 125.846  0.00  0.00     0.136 HD
ATOM     24  H7   11 d         -12.304 207.893 124.554  0.00  0.00     0.136 HD
ENDBRANCH  19  22
ENDBRANCH  16  19
ENDBRANCH  10  13
BRANCH   2  25
ATOM     25  O3   11 d         -13.459 205.883 113.918  0.00  0.00    -0.332 OA
BRANCH  25  26
ATOM     26  C12  11 d         -14.840 206.066 113.498  0.00  0.00     0.182 C 
BRANCH  26  27
ATOM     27  C13  11 d         -15.094 205.300 112.186  0.00  0.00     0.010 C 
ATOM     28  C14  11 d         -13.925 205.437 111.184  0.00  0.00     0.007 C 
ATOM     29  C15  11 d         -13.872 206.818 110.512  0.00  0.00     0.000 C 
ATOM     30  C16  11 d         -15.207 207.164 109.841  0.00  0.00     0.000 C 
ATOM     31  C17  11 d         -16.384 207.060 110.820  0.00  0.00     0.000 C 
ATOM     32  C18  11 d         -16.430 205.687 111.508  0.00  0.00     0.007 C 
ENDBRANCH  26  27
ENDBRANCH  25  26
ENDBRANCH   2  25
TORSDOF 6
ENDMDL
MODEL 6
REMARK VINA RESULT:      -8.6      3.793      8.615
REMARK  6 active torsions:
REMARK  status: ('A' for Active; 'I' for Inactive)
REMARK    1  A    between atoms: C2_2  and  O3_21 
REMARK       I    between atoms: C3_4  and  N5_10 
REMARK    2  A    between atoms: N5_10  and  C6_11 
REMARK    3  A    between atoms: C9_14  and  S1_15 
REMARK    4  A    between atoms: S1_15  and  N6_18 
REMARK    5  A    between atoms: O3_21  and  C12_22 
REMARK    6  A    between atoms: C12_22  and  C13_23 
ROOT
ATOM      1  C1   11 d          -9.726 207.073 118.793  0.00  0.00     0.158 A 
ATOM      2  C2   11 d          -8.900 207.989 118.140  0.00  0.00     0.216 A 
ATOM      3  N1   11 d          -9.207 208.299 116.838  0.00  0.00    -0.035 NA
ATOM      4  C3   11 d         -10.295 207.766 116.191  0.00  0.00     0.731 A 
ATOM      5  N2   11 d         -11.106 206.876 116.851  0.00  0.00    -0.042 NA
ATOM      6  C4   11 d         -10.808 206.551 118.133  0.00  0.00     0.181 A 
ATOM      7  N3   11 d         -11.435 205.713 118.970  0.00  0.00    -0.333 N 
ATOM      8  C5   11 d         -10.742 205.716 120.139  0.00  0.00     0.209 A 
ATOM      9  N4   11 d          -9.679 206.555 120.038  0.00  0.00    -0.236 NA
ATOM     10  N5   11 d         -10.497 208.094 114.863  0.00  0.00    -0.188 N 
ATOM     11  H1   11 d         -12.301 205.159 118.749  0.00  0.00     0.168 HD
ATOM     12  H3   11 d          -9.784 208.610 114.396  0.00  0.00     0.184 HD
ENDROOT
BRANCH  10  13
ATOM     13  C6   11 d         -11.624 207.743 114.135  0.00  0.00     0.049 A 
ATOM     14  C7   11 d         -11.491 206.818 113.082  0.00  0.00     0.031 A 
ATOM     15  C8   11 d         -12.606 206.440 112.320  0.00  0.00     0.027 A 
ATOM     16  C9   11 d         -13.868 206.993 112.593  0.00  0.00     0.074 A 
ATOM     17  C10  11 d         -14.005 207.935 113.626  0.00  0.00     0.027 A 
ATOM     18  C11  11 d         -12.890 208.311 114.392  0.00  0.00     0.031 A 
BRANCH  16  19
ATOM     19  S1   11 d         -15.312 206.506 111.641  0.00  0.00     0.239 S 
ATOM     20  O1   11 d         -16.578 206.970 112.365  0.00  0.00    -0.206 OA
ATOM     21  O2   11 d         -15.393 204.981 111.537  0.00  0.00    -0.206 OA
BRANCH  19  22
ATOM     22  N6   11 d         -15.303 207.181 110.027  0.00  0.00    -0.225 NA
ATOM     23  H6   11 d         -15.988 206.596 109.451  0.00  0.00     0.136 HD
ATOM     24  H7   11 d         -15.725 208.159 110.097  0.00  0.00     0.136 HD
ENDBRANCH  19  22
ENDBRANCH  16  19
ENDBRANCH  10  13
BRANCH   2  25
ATOM     25  O3   11 d          -7.742 208.493 118.794  0.00  0.00    -0.332 OA
BRANCH  25  26
ATOM     26  C12  11 d          -6.521 207.841 118.342  0.00  0.00     0.182 C 
BRANCH  26  27
ATOM     27  C13  11 d          -5.356 208.849 118.353  0.00  0.00     0.010 C 
ATOM     28  C14  11 d          -5.722 210.186 117.670  0.00  0.00     0.007 C 
ATOM     29  C15  11 d          -5.778 210.079 116.138  0.00  0.00     0.000 C 
ATOM     30  C16  11 d          -4.469 209.518 115.569  0.00  0.00     0.000 C 
ATOM     31  C17  11 d          -4.093 208.177 116.213  0.00  0.00     0.000 C 
ATOM     32  C18  11 d          -4.054 208.275 117.746  0.00  0.00     0.007 C 
ENDBRANCH  26  27
ENDBRANCH  25  26
ENDBRANCH   2  25
TORSDOF 6
ENDMDL
MODEL 7
REMARK VINA RESULT:      -8.6      3.314      5.081
REMARK  6 active torsions:
REMARK  status: ('A' for Active; 'I' for Inactive)
REMARK    1  A    between atoms: C2_2  and  O3_21 
REMARK       I    between atoms: C3_4  and  N5_10 
REMARK    2  A    between atoms: N5_10  and  C6_11 
REMARK    3  A    between atoms: C9_14  and  S1_15 
REMARK    4  A    between atoms: S1_15  and  N6_18 
REMARK    5  A    between atoms: O3_21  and  C12_22 
REMARK    6  A    between atoms: C12_22  and  C13_23 
ROOT
ATOM      1  C1   11 d         -12.206 207.630 113.378  0.00  0.00     0.158 A 
ATOM      2  C2   11 d         -13.420 207.598 114.067  0.00  0.00     0.216 A 
ATOM      3  N1   11 d         -13.367 207.476 115.434  0.00  0.00    -0.035 NA
ATOM      4  C3   11 d         -12.180 207.415 116.123  0.00  0.00     0.731 A 
ATOM      5  N2   11 d         -10.994 207.461 115.432  0.00  0.00    -0.042 NA
ATOM      6  C4   11 d         -11.030 207.570 114.082  0.00  0.00     0.181 A 
ATOM      7  N3   11 d         -10.022 207.624 113.201  0.00  0.00    -0.333 N 
ATOM      8  C5   11 d         -10.572 207.716 111.962  0.00  0.00     0.209 A 
ATOM      9  N4   11 d         -11.927 207.718 112.062  0.00  0.00    -0.236 NA
ATOM     10  N5   11 d         -12.222 207.238 117.493  0.00  0.00    -0.188 N 
ATOM     11  H1   11 d          -8.998 207.598 113.438  0.00  0.00     0.168 HD
ATOM     12  H3   11 d         -13.105 207.046 117.912  0.00  0.00     0.184 HD
ENDROOT
BRANCH  10  13
ATOM     13  C6   11 d         -11.113 207.301 118.323  0.00  0.00     0.049 A 
ATOM     14  C7   11 d         -10.777 206.172 119.094  0.00  0.00     0.031 A 
ATOM     15  C8   11 d          -9.665 206.197 119.948  0.00  0.00     0.027 A 
ATOM     16  C9   11 d          -8.880 207.358 120.052  0.00  0.00     0.074 A 
ATOM     17  C10  11 d          -9.223 208.497 119.305  0.00  0.00     0.027 A 
ATOM     18  C11  11 d         -10.334 208.471 118.447  0.00  0.00     0.031 A 
BRANCH  16  19
ATOM     19  S1   11 d          -7.440 207.403 121.125  0.00  0.00     0.239 S 
ATOM     20  O1   11 d          -7.561 208.585 122.088  0.00  0.00    -0.206 OA
ATOM     21  O2   11 d          -6.169 207.629 120.302  0.00  0.00    -0.206 OA
BRANCH  19  22
ATOM     22  N6   11 d          -7.255 205.931 122.054  0.00  0.00    -0.225 NA
ATOM     23  H6   11 d          -8.205 205.442 122.037  0.00  0.00     0.136 HD
ATOM     24  H7   11 d          -6.582 205.305 121.511  0.00  0.00     0.136 HD
ENDBRANCH  19  22
ENDBRANCH  16  19
ENDBRANCH  10  13
BRANCH   2  25
ATOM     25  O3   11 d         -14.646 207.602 113.346  0.00  0.00    -0.332 OA
BRANCH  25  26
ATOM     26  C12  11 d         -15.510 206.491 113.715  0.00  0.00     0.182 C 
BRANCH  26  27
ATOM     27  C13  11 d         -16.190 205.918 112.457  0.00  0.00     0.010 C 
ATOM     28  C14  11 d         -15.368 204.785 111.802  0.00  0.00     0.007 C 
ATOM     29  C15  11 d         -14.131 205.301 111.050  0.00  0.00     0.000 C 
ATOM     30  C16  11 d         -14.513 206.365 110.013  0.00  0.00     0.000 C 
ATOM     31  C17  11 d         -15.310 207.516 110.641  0.00  0.00     0.000 C 
ATOM     32  C18  11 d         -16.537 207.003 111.410  0.00  0.00     0.007 C 
ENDBRANCH  26  27
ENDBRANCH  25  26
ENDBRANCH   2  25
TORSDOF 6
ENDMDL
MODEL 8
REMARK VINA RESULT:      -8.6      3.667      5.541
REMARK  6 active torsions:
REMARK  status: ('A' for Active; 'I' for Inactive)
REMARK    1  A    between atoms: C2_2  and  O3_21 
REMARK       I    between atoms: C3_4  and  N5_10 
REMARK    2  A    between atoms: N5_10  and  C6_11 
REMARK    3  A    between atoms: C9_14  and  S1_15 
REMARK    4  A    between atoms: S1_15  and  N6_18 
REMARK    5  A    between atoms: O3_21  and  C12_22 
REMARK    6  A    between atoms: C12_22  and  C13_23 
ROOT
ATOM      1  C1   11 d         -10.160 208.475 113.241  0.00  0.00     0.158 A 
ATOM      2  C2   11 d         -11.362 207.826 113.525  0.00  0.00     0.216 A 
ATOM      3  N1   11 d         -11.568 207.418 114.819  0.00  0.00    -0.035 NA
ATOM      4  C3   11 d         -10.657 207.651 115.820  0.00  0.00     0.731 A 
ATOM      5  N2   11 d          -9.484 208.303 115.528  0.00  0.00    -0.042 NA
ATOM      6  C4   11 d          -9.261 208.702 114.252  0.00  0.00     0.181 A 
ATOM      7  N3   11 d          -8.205 209.338 113.728  0.00  0.00    -0.333 N 
ATOM      8  C5   11 d          -8.449 209.502 112.401  0.00  0.00     0.209 A 
ATOM      9  N4   11 d          -9.658 208.968 112.090  0.00  0.00    -0.236 NA
ATOM     10  N5   11 d         -10.924 207.156 117.083  0.00  0.00    -0.188 N 
ATOM     11  H1   11 d          -7.350 209.647 114.256  0.00  0.00     0.168 HD
ATOM     12  H3   11 d         -11.709 206.552 117.191  0.00  0.00     0.184 HD
ENDROOT
BRANCH  10  13
ATOM     13  C6   11 d         -10.165 207.439 118.208  0.00  0.00     0.049 A 
ATOM     14  C7   11 d          -9.990 208.783 118.589  0.00  0.00     0.031 A 
ATOM     15  C8   11 d          -9.226 209.110 119.720  0.00  0.00     0.027 A 
ATOM     16  C9   11 d          -8.617 208.096 120.478  0.00  0.00     0.074 A 
ATOM     17  C10  11 d          -8.766 206.754 120.089  0.00  0.00     0.027 A 
ATOM     18  C11  11 d          -9.533 206.426 118.961  0.00  0.00     0.031 A 
BRANCH  16  19
ATOM     19  S1   11 d          -7.651 208.493 121.940  0.00  0.00     0.239 S 
ATOM     20  O1   11 d          -6.826 209.754 121.676  0.00  0.00    -0.206 OA
ATOM     21  O2   11 d          -6.659 207.368 122.244  0.00  0.00    -0.206 OA
BRANCH  19  22
ATOM     22  N6   11 d          -8.654 208.756 123.349  0.00  0.00    -0.225 NA
ATOM     23  H6   11 d          -9.653 208.511 123.059  0.00  0.00     0.136 HD
ATOM     24  H7   11 d          -8.363 208.030 124.076  0.00  0.00     0.136 HD
ENDBRANCH  19  22
ENDBRANCH  16  19
ENDBRANCH  10  13
BRANCH   2  25
ATOM     25  O3   11 d         -12.276 207.535 112.475  0.00  0.00    -0.332 OA
BRANCH  25  26
ATOM     26  C12  11 d         -13.022 206.308 112.713  0.00  0.00     0.182 C 
BRANCH  26  27
ATOM     27  C13  11 d         -13.563 205.757 111.380  0.00  0.00     0.010 C 
ATOM     28  C14  11 d         -13.961 206.878 110.393  0.00  0.00     0.007 C 
ATOM     29  C15  11 d         -15.274 207.576 110.781  0.00  0.00     0.000 C 
ATOM     30  C16  11 d         -16.417 206.565 110.945  0.00  0.00     0.000 C 
ATOM     31  C17  11 d         -16.057 205.453 111.939  0.00  0.00     0.000 C 
ATOM     32  C18  11 d         -14.735 204.764 111.566  0.00  0.00     0.007 C 
ENDBRANCH  26  27
ENDBRANCH  25  26
ENDBRANCH   2  25
TORSDOF 6
ENDMDL
MODEL 9
REMARK VINA RESULT:      -8.5      3.847      9.389
REMARK  6 active torsions:
REMARK  status: ('A' for Active; 'I' for Inactive)
REMARK    1  A    between atoms: C2_2  and  O3_21 
REMARK       I    between atoms: C3_4  and  N5_10 
REMARK    2  A    between atoms: N5_10  and  C6_11 
REMARK    3  A    between atoms: C9_14  and  S1_15 
REMARK    4  A    between atoms: S1_15  and  N6_18 
REMARK    5  A    between atoms: O3_21  and  C12_22 
REMARK    6  A    between atoms: C12_22  and  C13_23 
ROOT
ATOM      1  C1   11 d          -6.936 208.851 113.847  0.00  0.00     0.158 A 
ATOM      2  C2   11 d          -7.307 209.019 115.182  0.00  0.00     0.216 A 
ATOM      3  N1   11 d          -8.637 208.873 115.490  0.00  0.00    -0.035 NA
ATOM      4  C3   11 d          -9.581 208.545 114.548  0.00  0.00     0.731 A 
ATOM      5  N2   11 d          -9.198 208.369 113.241  0.00  0.00    -0.042 NA
ATOM      6  C4   11 d          -7.891 208.522 112.918  0.00  0.00     0.181 A 
ATOM      7  N3   11 d          -7.285 208.413 111.728  0.00  0.00    -0.333 N 
ATOM      8  C5   11 d          -5.965 208.673 111.920  0.00  0.00     0.209 A 
ATOM      9  N4   11 d          -5.740 208.948 113.231  0.00  0.00    -0.236 NA
ATOM     10  N5   11 d         -10.904 208.471 114.939  0.00  0.00    -0.188 N 
ATOM     11  H1   11 d          -7.756 208.171 110.820  0.00  0.00     0.168 HD
ATOM     12  H3   11 d         -11.136 208.771 115.860  0.00  0.00     0.184 HD
ENDROOT
BRANCH  10  13
ATOM     13  C6   11 d         -11.933 208.016 114.129  0.00  0.00     0.049 A 
ATOM     14  C7   11 d         -13.256 208.390 114.436  0.00  0.00     0.031 A 
ATOM     15  C8   11 d         -14.324 207.947 113.643  0.00  0.00     0.027 A 
ATOM     16  C9   11 d         -14.086 207.112 112.538  0.00  0.00     0.074 A 
ATOM     17  C10  11 d         -12.773 206.714 112.240  0.00  0.00     0.027 A 
ATOM     18  C11  11 d         -11.702 207.159 113.031  0.00  0.00     0.031 A 
BRANCH  16  19
ATOM     19  S1   11 d         -15.440 206.551 111.499  0.00  0.00     0.239 S 
ATOM     20  O1   11 d         -16.766 207.039 112.085  0.00  0.00    -0.206 OA
ATOM     21  O2   11 d         -15.498 205.021 111.481  0.00  0.00    -0.206 OA
BRANCH  19  22
ATOM     22  N6   11 d         -15.300 207.128 109.854  0.00  0.00    -0.225 NA
ATOM     23  H6   11 d         -15.765 206.392 109.235  0.00  0.00     0.136 HD
ATOM     24  H7   11 d         -15.901 208.008 109.782  0.00  0.00     0.136 HD
ENDBRANCH  19  22
ENDBRANCH  16  19
ENDBRANCH  10  13
BRANCH   2  25
ATOM     25  O3   11 d          -6.337 209.416 116.143  0.00  0.00    -0.332 OA
BRANCH  25  26
ATOM     26  C12  11 d          -6.620 208.884 117.468  0.00  0.00     0.182 C 
BRANCH  26  27
ATOM     27  C13  11 d          -5.421 209.142 118.401  0.00  0.00     0.010 C 
ATOM     28  C14  11 d          -5.652 208.595 119.828  0.00  0.00     0.007 C 
ATOM     29  C15  11 d          -6.632 209.451 120.646  0.00  0.00     0.000 C 
ATOM     30  C16  11 d          -6.187 210.919 120.692  0.00  0.00     0.000 C 
ATOM     31  C17  11 d          -5.974 211.496 119.286  0.00  0.00     0.000 C 
ATOM     32  C18  11 d          -5.009 210.632 118.459  0.00  0.00     0.007 C 
ENDBRANCH  26  27
ENDBRANCH  25  26
ENDBRANCH   2  25
TORSDOF 6
ENDMDL
MODEL 10
REMARK VINA RESULT:      -8.4      5.529      8.913
REMARK  6 active torsions:
REMARK  status: ('A' for Active; 'I' for Inactive)
REMARK    1  A    between atoms: C2_2  and  O3_21 
REMARK       I    between atoms: C3_4  and  N5_10 
REMARK    2  A    between atoms: N5_10  and  C6_11 
REMARK    3  A    between atoms: C9_14  and  S1_15 
REMARK    4  A    between atoms: S1_15  and  N6_18 
REMARK    5  A    between atoms: O3_21  and  C12_22 
REMARK    6  A    between atoms: C12_22  and  C13_23 
ROOT
ATOM      1  C1   11 d         -12.188 207.150 116.582  0.00  0.00     0.158 A 
ATOM      2  C2   11 d         -13.060 206.205 116.039  0.00  0.00     0.216 A 
ATOM      3  N1   11 d         -13.873 205.523 116.910  0.00  0.00    -0.035 NA
ATOM      4  C3   11 d         -13.870 205.762 118.262  0.00  0.00     0.731 A 
ATOM      5  N2   11 d         -13.016 206.706 118.780  0.00  0.00    -0.042 NA
ATOM      6  C4   11 d         -12.199 207.379 117.934  0.00  0.00     0.181 A 
ATOM      7  N3   11 d         -11.287 208.324 118.198  0.00  0.00    -0.333 N 
ATOM      8  C5   11 d         -10.716 208.676 117.016  0.00  0.00     0.209 A 
ATOM      9  N4   11 d         -11.268 207.952 116.008  0.00  0.00    -0.236 NA
ATOM     10  N5   11 d         -14.684 204.991 119.070  0.00  0.00    -0.188 N 
ATOM     11  H1   11 d         -11.063 208.712 119.149  0.00  0.00     0.168 HD
ATOM     12  H3   11 d         -15.153 204.216 118.656  0.00  0.00     0.184 HD
ENDROOT
BRANCH  10  13
ATOM     13  C6   11 d         -14.884 205.219 120.423  0.00  0.00     0.049 A 
ATOM     14  C7   11 d         -14.015 204.611 121.350  0.00  0.00     0.031 A 
ATOM     15  C8   11 d         -14.185 204.815 122.727  0.00  0.00     0.027 A 
ATOM     16  C9   11 d         -15.236 205.619 123.197  0.00  0.00     0.074 A 
ATOM     17  C10  11 d         -16.123 206.208 122.281  0.00  0.00     0.027 A 
ATOM     18  C11  11 d         -15.951 206.009 120.902  0.00  0.00     0.031 A 
BRANCH  16  19
ATOM     19  S1   11 d         -15.460 205.908 124.956  0.00  0.00     0.239 S 
ATOM     20  O1   11 d         -16.928 205.683 125.326  0.00  0.00    -0.206 OA
ATOM     21  O2   11 d         -15.132 207.362 125.304  0.00  0.00    -0.206 OA
BRANCH  19  22
ATOM     22  N6   11 d         -14.462 204.856 125.935  0.00  0.00    -0.225 NA
ATOM     23  H6   11 d         -13.519 204.784 125.437  0.00  0.00     0.136 HD
ATOM     24  H7   11 d         -14.279 205.369 126.854  0.00  0.00     0.136 HD
ENDBRANCH  19  22
ENDBRANCH  16  19
ENDBRANCH  10  13
BRANCH   2  25
ATOM     25  O3   11 d         -13.018 205.918 114.647  0.00  0.00    -0.332 OA
BRANCH  25  26
ATOM     26  C12  11 d         -14.307 205.478 114.132  0.00  0.00     0.182 C 
BRANCH  26  27
ATOM     27  C13  11 d         -15.091 206.687 113.585  0.00  0.00     0.010 C 
ATOM     28  C14  11 d         -16.415 206.275 112.903  0.00  0.00     0.007 C 
ATOM     29  C15  11 d         -16.203 205.631 111.524  0.00  0.00     0.000 C 
ATOM     30  C16  11 d         -15.378 206.541 110.605  0.00  0.00     0.000 C 
ATOM     31  C17  11 d         -14.045 206.946 111.248  0.00  0.00     0.000 C 
ATOM     32  C18  11 d         -14.251 207.574 112.635  0.00  0.00     0.007 C 
ENDBRANCH  26  27
ENDBRANCH  25  26
ENDBRANCH   2  25
TORSDOF 6
ENDMDL
