MODEL 1
REMARK VINA RESULT:      -8.9      0.000      0.000
REMARK  2 active torsions:
REMARK  status: ('A' for Active; 'I' for Inactive)
REMARK    1  A    between atoms: C10_10  and  S1_11 
REMARK    2  A    between atoms: S1_11  and  C11_12 
ROOT
ATOM      1  C1   11 d         -10.477 208.029 113.647  0.00  0.00    -0.026 A 
ATOM      2  C2   11 d          -9.072 208.535 113.668  0.00  0.00    -0.026 A 
ATOM      3  C3   11 d          -8.263 208.474 112.510  0.00  0.00     0.012 A 
ATOM      4  C4   11 d          -6.944 208.950 112.531  0.00  0.00     0.001 A 
ATOM      5  C5   11 d          -6.412 209.496 113.707  0.00  0.00     0.000 A 
ATOM      6  C6   11 d          -7.200 209.563 114.864  0.00  0.00     0.001 A 
ATOM      7  C7   11 d          -8.519 209.086 114.847  0.00  0.00     0.012 A 
ATOM      8  C8   11 d         -11.491 208.674 114.389  0.00  0.00     0.014 A 
ATOM      9  C9   11 d         -12.810 208.200 114.365  0.00  0.00     0.024 A 
ATOM     10  C10  11 d         -13.149 207.078 113.591  0.00  0.00     0.060 A 
ATOM     11  C15  11 d         -12.146 206.420 112.860  0.00  0.00     0.024 A 
ATOM     12  C16  11 d         -10.824 206.891 112.885  0.00  0.00     0.014 A 
ENDROOT
BRANCH  10  13
ATOM     13  S1   11 d         -14.847 206.476 113.548  0.00  0.00     0.183 S 
ATOM     14  O1   11 d         -15.763 207.520 114.195  0.00  0.00    -0.222 OA
ATOM     15  O2   11 d         -14.948 205.223 114.420  0.00  0.00    -0.222 OA
BRANCH  13  16
ATOM     16  C11  11 d         -15.470 206.112 111.855  0.00  0.00     0.058 C 
ATOM     17  C12  11 d         -14.846 204.786 111.381  0.00  0.00     0.031 C 
ATOM     18  C13  11 d         -15.084 207.235 110.876  0.00  0.00     0.031 C 
ATOM     19  C14  11 d         -17.002 205.974 111.912  0.00  0.00     0.031 C 
ENDBRANCH  13  16
ENDBRANCH  10  13
TORSDOF 2
ENDMDL
MODEL 2
REMARK VINA RESULT:      -8.8      0.040      1.575
REMARK  2 active torsions:
REMARK  status: ('A' for Active; 'I' for Inactive)
REMARK    1  A    between atoms: C10_10  and  S1_11 
REMARK    2  A    between atoms: S1_11  and  C11_12 
ROOT
ATOM      1  C1   11 d         -10.490 208.040 113.636  0.00  0.00    -0.026 A 
ATOM      2  C2   11 d          -9.082 208.540 113.673  0.00  0.00    -0.026 A 
ATOM      3  C3   11 d          -8.540 209.087 114.859  0.00  0.00     0.012 A 
ATOM      4  C4   11 d          -7.219 209.555 114.892  0.00  0.00     0.001 A 
ATOM      5  C5   11 d          -6.417 209.483 113.745  0.00  0.00     0.000 A 
ATOM      6  C6   11 d          -6.939 208.945 112.562  0.00  0.00     0.001 A 
ATOM      7  C7   11 d          -8.262 208.477 112.524  0.00  0.00     0.012 A 
ATOM      8  C8   11 d         -10.836 206.906 112.867  0.00  0.00     0.014 A 
ATOM      9  C9   11 d         -12.157 206.437 112.836  0.00  0.00     0.024 A 
ATOM     10  C10  11 d         -13.159 207.081 113.580  0.00  0.00     0.060 A 
ATOM     11  C15  11 d         -12.828 208.217 114.337  0.00  0.00     0.024 A 
ATOM     12  C16  11 d         -11.508 208.691 114.367  0.00  0.00     0.014 A 
ENDROOT
BRANCH  10  13
ATOM     13  S1   11 d         -14.854 206.469 113.553  0.00  0.00     0.183 S 
ATOM     14  O1   11 d         -15.775 207.522 114.177  0.00  0.00    -0.222 OA
ATOM     15  O2   11 d         -14.946 205.235 114.453  0.00  0.00    -0.222 OA
BRANCH  13  16
ATOM     16  C11  11 d         -15.476 206.063 111.869  0.00  0.00     0.058 C 
ATOM     17  C12  11 d         -14.822 204.745 111.413  0.00  0.00     0.031 C 
ATOM     18  C13  11 d         -15.122 207.180 110.871  0.00  0.00     0.031 C 
ATOM     19  C14  11 d         -17.004 205.889 111.937  0.00  0.00     0.031 C 
ENDBRANCH  13  16
ENDBRANCH  10  13
TORSDOF 2
ENDMDL
MODEL 3
REMARK VINA RESULT:      -8.1      4.355      7.865
REMARK  2 active torsions:
REMARK  status: ('A' for Active; 'I' for Inactive)
REMARK    1  A    between atoms: C10_10  and  S1_11 
REMARK    2  A    between atoms: S1_11  and  C11_12 
ROOT
ATOM      1  C1   11 d         -10.243 208.224 113.402  0.00  0.00    -0.026 A 
ATOM      2  C2   11 d         -11.562 207.684 112.952  0.00  0.00    -0.026 A 
ATOM      3  C3   11 d         -11.639 206.754 111.891  0.00  0.00     0.012 A 
ATOM      4  C4   11 d         -12.877 206.247 111.471  0.00  0.00     0.001 A 
ATOM      5  C5   11 d         -14.058 206.661 112.103  0.00  0.00     0.000 A 
ATOM      6  C6   11 d         -13.999 207.583 113.156  0.00  0.00     0.001 A 
ATOM      7  C7   11 d         -12.762 208.093 113.578  0.00  0.00     0.012 A 
ATOM      8  C8   11 d          -9.998 208.495 114.766  0.00  0.00     0.014 A 
ATOM      9  C9   11 d          -8.759 208.998 115.186  0.00  0.00     0.024 A 
ATOM     10  C10  11 d          -7.732 209.231 114.256  0.00  0.00     0.060 A 
ATOM     11  C15  11 d          -7.970 208.979 112.895  0.00  0.00     0.024 A 
ATOM     12  C16  11 d          -9.211 208.479 112.471  0.00  0.00     0.014 A 
ENDROOT
BRANCH  10  13
ATOM     13  S1   11 d          -6.134 209.864 114.797  0.00  0.00     0.183 S 
ATOM     14  O1   11 d          -6.302 211.315 115.260  0.00  0.00    -0.222 OA
ATOM     15  O2   11 d          -5.189 209.907 113.595  0.00  0.00    -0.222 OA
BRANCH  13  16
ATOM     16  C11  11 d          -5.368 208.894 116.160  0.00  0.00     0.058 C 
ATOM     17  C12  11 d          -3.862 209.213 116.198  0.00  0.00     0.031 C 
ATOM     18  C13  11 d          -5.565 207.385 115.936  0.00  0.00     0.031 C 
ATOM     19  C14  11 d          -6.020 209.313 117.490  0.00  0.00     0.031 C 
ENDBRANCH  13  16
ENDBRANCH  10  13
TORSDOF 2
ENDMDL
MODEL 4
REMARK VINA RESULT:      -7.9      4.226      7.881
REMARK  2 active torsions:
REMARK  status: ('A' for Active; 'I' for Inactive)
REMARK    1  A    between atoms: C10_10  and  S1_11 
REMARK    2  A    between atoms: S1_11  and  C11_12 
ROOT
ATOM      1  C1   11 d         -10.509 208.070 113.314  0.00  0.00    -0.026 A 
ATOM      2  C2   11 d         -11.848 207.566 112.884  0.00  0.00    -0.026 A 
ATOM      3  C3   11 d         -13.033 208.083 113.454  0.00  0.00     0.012 A 
ATOM      4  C4   11 d         -14.289 207.609 113.049  0.00  0.00     0.001 A 
ATOM      5  C5   11 d         -14.383 206.613 112.068  0.00  0.00     0.000 A 
ATOM      6  C6   11 d         -13.217 206.089 111.493  0.00  0.00     0.001 A 
ATOM      7  C7   11 d         -11.959 206.559 111.897  0.00  0.00     0.012 A 
ATOM      8  C8   11 d          -9.450 208.195 112.387  0.00  0.00     0.014 A 
ATOM      9  C9   11 d          -8.195 208.672 112.792  0.00  0.00     0.024 A 
ATOM     10  C10  11 d          -7.973 209.046 114.128  0.00  0.00     0.060 A 
ATOM     11  C15  11 d          -9.014 208.912 115.060  0.00  0.00     0.024 A 
ATOM     12  C16  11 d         -10.270 208.432 114.658  0.00  0.00     0.014 A 
ENDROOT
BRANCH  10  13
ATOM     13  S1   11 d          -6.364 209.673 114.646  0.00  0.00     0.183 S 
ATOM     14  O1   11 d          -6.528 211.109 115.152  0.00  0.00    -0.222 OA
ATOM     15  O2   11 d          -5.450 209.754 113.421  0.00  0.00    -0.222 OA
BRANCH  13  16
ATOM     16  C11  11 d          -5.558 208.670 115.962  0.00  0.00     0.058 C 
ATOM     17  C12  11 d          -4.994 207.389 115.322  0.00  0.00     0.031 C 
ATOM     18  C13  11 d          -6.570 208.290 117.057  0.00  0.00     0.031 C 
ATOM     19  C14  11 d          -4.411 209.493 116.575  0.00  0.00     0.031 C 
ENDBRANCH  13  16
ENDBRANCH  10  13
TORSDOF 2
ENDMDL
MODEL 5
REMARK VINA RESULT:      -7.3      1.738      2.611
REMARK  2 active torsions:
REMARK  status: ('A' for Active; 'I' for Inactive)
REMARK    1  A    between atoms: C10_10  and  S1_11 
REMARK    2  A    between atoms: S1_11  and  C11_12 
ROOT
ATOM      1  C1   11 d         -10.435 208.238 113.281  0.00  0.00    -0.026 A 
ATOM      2  C2   11 d          -9.175 208.682 113.949  0.00  0.00    -0.026 A 
ATOM      3  C3   11 d          -8.991 208.502 115.339  0.00  0.00     0.012 A 
ATOM      4  C4   11 d          -7.807 208.919 115.964  0.00  0.00     0.001 A 
ATOM      5  C5   11 d          -6.789 209.522 115.213  0.00  0.00     0.000 A 
ATOM      6  C6   11 d          -6.956 209.709 113.835  0.00  0.00     0.001 A 
ATOM      7  C7   11 d          -8.140 209.294 113.206  0.00  0.00     0.012 A 
ATOM      8  C8   11 d         -10.413 207.706 111.973  0.00  0.00     0.014 A 
ATOM      9  C9   11 d         -11.597 207.286 111.349  0.00  0.00     0.024 A 
ATOM     10  C10  11 d         -12.827 207.376 112.021  0.00  0.00     0.060 A 
ATOM     11  C15  11 d         -12.862 207.916 113.317  0.00  0.00     0.024 A 
ATOM     12  C16  11 d         -11.680 208.340 113.942  0.00  0.00     0.014 A 
ENDROOT
BRANCH  10  13
ATOM     13  S1   11 d         -14.346 206.822 111.225  0.00  0.00     0.183 S 
ATOM     14  O1   11 d         -14.030 206.394 109.789  0.00  0.00    -0.222 OA
ATOM     15  O2   11 d         -15.304 208.010 111.114  0.00  0.00    -0.222 OA
BRANCH  13  16
ATOM     16  C11  11 d         -15.178 205.427 112.089  0.00  0.00     0.058 C 
ATOM     17  C12  11 d         -16.701 205.596 111.935  0.00  0.00     0.031 C 
ATOM     18  C13  11 d         -14.815 205.415 113.585  0.00  0.00     0.031 C 
ATOM     19  C14  11 d         -14.733 204.107 111.435  0.00  0.00     0.031 C 
ENDBRANCH  13  16
ENDBRANCH  10  13
TORSDOF 2
ENDMDL
MODEL 6
REMARK VINA RESULT:      -7.3      4.242      6.948
REMARK  2 active torsions:
REMARK  status: ('A' for Active; 'I' for Inactive)
REMARK    1  A    between atoms: C10_10  and  S1_11 
REMARK    2  A    between atoms: S1_11  and  C11_12 
ROOT
ATOM      1  C1   11 d         -14.293 206.598 114.167  0.00  0.00    -0.026 A 
ATOM      2  C2   11 d         -14.831 206.685 112.776  0.00  0.00    -0.026 A 
ATOM      3  C3   11 d         -16.180 206.365 112.501  0.00  0.00     0.012 A 
ATOM      4  C4   11 d         -16.683 206.448 111.195  0.00  0.00     0.001 A 
ATOM      5  C5   11 d         -15.850 206.852 110.144  0.00  0.00     0.000 A 
ATOM      6  C6   11 d         -14.510 207.172 110.399  0.00  0.00     0.001 A 
ATOM      7  C7   11 d         -14.002 207.089 111.705  0.00  0.00     0.012 A 
ATOM      8  C8   11 d         -13.333 207.524 114.632  0.00  0.00     0.014 A 
ATOM      9  C9   11 d         -12.832 207.443 115.940  0.00  0.00     0.024 A 
ATOM     10  C10  11 d         -13.286 206.443 116.815  0.00  0.00     0.060 A 
ATOM     11  C15  11 d         -14.229 205.508 116.359  0.00  0.00     0.024 A 
ATOM     12  C16  11 d         -14.730 205.585 115.050  0.00  0.00     0.014 A 
ENDROOT
BRANCH  10  13
ATOM     13  S1   11 d         -12.653 206.347 118.500  0.00  0.00     0.183 S 
ATOM     14  O1   11 d         -12.106 207.719 118.906  0.00  0.00    -0.222 OA
ATOM     15  O2   11 d         -11.461 205.389 118.524  0.00  0.00    -0.222 OA
BRANCH  13  16
ATOM     16  C11  11 d         -13.905 205.819 119.741  0.00  0.00     0.058 C 
ATOM     17  C12  11 d         -13.173 205.444 121.043  0.00  0.00     0.031 C 
ATOM     18  C13  11 d         -14.699 204.602 119.234  0.00  0.00     0.031 C 
ATOM     19  C14  11 d         -14.864 206.994 120.004  0.00  0.00     0.031 C 
ENDBRANCH  13  16
ENDBRANCH  10  13
TORSDOF 2
ENDMDL
MODEL 7
REMARK VINA RESULT:      -7.1      3.789      6.570
REMARK  2 active torsions:
REMARK  status: ('A' for Active; 'I' for Inactive)
REMARK    1  A    between atoms: C10_10  and  S1_11 
REMARK    2  A    between atoms: S1_11  and  C11_12 
ROOT
ATOM      1  C1   11 d         -13.853 207.275 113.715  0.00  0.00    -0.026 A 
ATOM      2  C2   11 d         -14.246 207.188 112.276  0.00  0.00    -0.026 A 
ATOM      3  C3   11 d         -13.268 207.034 111.267  0.00  0.00     0.012 A 
ATOM      4  C4   11 d         -13.638 206.952 109.917  0.00  0.00     0.001 A 
ATOM      5  C5   11 d         -14.989 207.022 109.553  0.00  0.00     0.000 A 
ATOM      6  C6   11 d         -15.971 207.177 110.540  0.00  0.00     0.001 A 
ATOM      7  C7   11 d         -15.604 207.260 111.892  0.00  0.00     0.012 A 
ATOM      8  C8   11 d         -14.662 206.703 114.722  0.00  0.00     0.014 A 
ATOM      9  C9   11 d         -14.290 206.783 116.072  0.00  0.00     0.024 A 
ATOM     10  C10  11 d         -13.097 207.423 116.445  0.00  0.00     0.060 A 
ATOM     11  C15  11 d         -12.292 208.007 115.453  0.00  0.00     0.024 A 
ATOM     12  C16  11 d         -12.664 207.932 114.102  0.00  0.00     0.014 A 
ENDROOT
BRANCH  10  13
ATOM     13  S1   11 d         -12.611 207.512 118.178  0.00  0.00     0.183 S 
ATOM     14  O1   11 d         -13.731 208.185 118.978  0.00  0.00    -0.222 OA
ATOM     15  O2   11 d         -11.391 208.429 118.301  0.00  0.00    -0.222 OA
BRANCH  13  16
ATOM     16  C11  11 d         -12.242 205.877 118.938  0.00  0.00     0.058 C 
ATOM     17  C12  11 d         -12.347 204.797 117.845  0.00  0.00     0.031 C 
ATOM     18  C13  11 d         -13.241 205.560 120.065  0.00  0.00     0.031 C 
ATOM     19  C14  11 d         -10.811 205.907 119.503  0.00  0.00     0.031 C 
ENDBRANCH  13  16
ENDBRANCH  10  13
TORSDOF 2
ENDMDL
MODEL 8
REMARK VINA RESULT:      -6.9      2.105      3.308
REMARK  2 active torsions:
REMARK  status: ('A' for Active; 'I' for Inactive)
REMARK    1  A    between atoms: C10_10  and  S1_11 
REMARK    2  A    between atoms: S1_11  and  C11_12 
ROOT
ATOM      1  C1   11 d          -8.769 208.703 114.438  0.00  0.00    -0.026 A 
ATOM      2  C2   11 d          -7.322 209.047 114.587  0.00  0.00    -0.026 A 
ATOM      3  C3   11 d          -6.691 208.986 115.850  0.00  0.00     0.012 A 
ATOM      4  C4   11 d          -5.333 209.309 115.989  0.00  0.00     0.001 A 
ATOM      5  C5   11 d          -4.584 209.695 114.870  0.00  0.00     0.000 A 
ATOM      6  C6   11 d          -5.195 209.761 113.610  0.00  0.00     0.001 A 
ATOM      7  C7   11 d          -6.553 209.441 113.468  0.00  0.00     0.012 A 
ATOM      8  C8   11 d          -9.241 208.043 113.282  0.00  0.00     0.014 A 
ATOM      9  C9   11 d         -10.598 207.718 113.145  0.00  0.00     0.024 A 
ATOM     10  C10  11 d         -11.512 208.035 114.164  0.00  0.00     0.060 A 
ATOM     11  C15  11 d         -11.055 208.703 115.311  0.00  0.00     0.024 A 
ATOM     12  C16  11 d          -9.698 209.033 115.449  0.00  0.00     0.014 A 
ENDROOT
BRANCH  10  13
ATOM     13  S1   11 d         -13.254 207.604 113.995  0.00  0.00     0.183 S 
ATOM     14  O1   11 d         -13.476 206.949 112.628  0.00  0.00    -0.222 OA
ATOM     15  O2   11 d         -14.081 208.891 113.990  0.00  0.00    -0.222 OA
BRANCH  13  16
ATOM     16  C11  11 d         -13.874 206.468 115.303  0.00  0.00     0.058 C 
ATOM     17  C12  11 d         -12.736 205.507 115.695  0.00  0.00     0.031 C 
ATOM     18  C13  11 d         -15.077 205.653 114.794  0.00  0.00     0.031 C 
ATOM     19  C14  11 d         -14.292 207.305 116.526  0.00  0.00     0.031 C 
ENDBRANCH  13  16
ENDBRANCH  10  13
TORSDOF 2
ENDMDL
MODEL 9
REMARK VINA RESULT:      -6.9      3.696      7.194
REMARK  2 active torsions:
REMARK  status: ('A' for Active; 'I' for Inactive)
REMARK    1  A    between atoms: C10_10  and  S1_11 
REMARK    2  A    between atoms: S1_11  and  C11_12 
ROOT
ATOM      1  C1   11 d         -12.114 206.735 114.500  0.00  0.00    -0.026 A 
ATOM      2  C2   11 d         -12.842 206.411 113.236  0.00  0.00    -0.026 A 
ATOM      3  C3   11 d         -12.397 206.918 111.994  0.00  0.00     0.012 A 
ATOM      4  C4   11 d         -13.082 206.613 110.809  0.00  0.00     0.001 A 
ATOM      5  C5   11 d         -14.220 205.797 110.844  0.00  0.00     0.000 A 
ATOM      6  C6   11 d         -14.675 205.287 112.067  0.00  0.00     0.001 A 
ATOM      7  C7   11 d         -13.994 205.591 113.255  0.00  0.00     0.012 A 
ATOM      8  C8   11 d         -11.999 205.780 115.535  0.00  0.00     0.014 A 
ATOM      9  C9   11 d         -11.312 206.084 116.719  0.00  0.00     0.024 A 
ATOM     10  C10  11 d         -10.714 207.344 116.891  0.00  0.00     0.060 A 
ATOM     11  C15  11 d         -10.833 208.305 115.874  0.00  0.00     0.024 A 
ATOM     12  C16  11 d         -11.524 208.004 114.690  0.00  0.00     0.014 A 
ENDROOT
BRANCH  10  13
ATOM     13  S1   11 d          -9.818 207.730 118.406  0.00  0.00     0.183 S 
ATOM     14  O1   11 d         -10.149 206.674 119.465  0.00  0.00    -0.222 OA
ATOM     15  O2   11 d         -10.333 209.061 118.957  0.00  0.00    -0.222 OA
BRANCH  13  16
ATOM     16  C11  11 d          -7.991 207.805 118.197  0.00  0.00     0.058 C 
ATOM     17  C12  11 d          -7.423 208.798 119.228  0.00  0.00     0.031 C 
ATOM     18  C13  11 d          -7.621 208.275 116.779  0.00  0.00     0.031 C 
ATOM     19  C14  11 d          -7.408 206.403 118.450  0.00  0.00     0.031 C 
ENDBRANCH  13  16
ENDBRANCH  10  13
TORSDOF 2
ENDMDL
MODEL 10
REMARK VINA RESULT:      -6.8      6.088      7.533
REMARK  2 active torsions:
REMARK  status: ('A' for Active; 'I' for Inactive)
REMARK    1  A    between atoms: C10_10  and  S1_11 
REMARK    2  A    between atoms: S1_11  and  C11_12 
ROOT
ATOM      1  C1   11 d         -14.076 205.034 116.768  0.00  0.00    -0.026 A 
ATOM      2  C2   11 d         -13.474 205.515 115.489  0.00  0.00    -0.026 A 
ATOM      3  C3   11 d         -14.250 205.600 114.310  0.00  0.00     0.012 A 
ATOM      4  C4   11 d         -13.683 206.052 113.110  0.00  0.00     0.001 A 
ATOM      5  C5   11 d         -12.334 206.428 113.066  0.00  0.00     0.000 A 
ATOM      6  C6   11 d         -11.550 206.349 114.225  0.00  0.00     0.001 A 
ATOM      7  C7   11 d         -12.113 205.896 115.428  0.00  0.00     0.012 A 
ATOM      8  C8   11 d         -13.682 205.587 118.007  0.00  0.00     0.014 A 
ATOM      9  C9   11 d         -14.251 205.137 119.207  0.00  0.00     0.024 A 
ATOM     10  C10  11 d         -15.234 204.133 119.196  0.00  0.00     0.060 A 
ATOM     11  C15  11 d         -15.623 203.567 117.971  0.00  0.00     0.024 A 
ATOM     12  C16  11 d         -15.052 204.013 116.769  0.00  0.00     0.014 A 
ENDROOT
BRANCH  10  13
ATOM     13  S1   11 d         -15.977 203.565 120.737  0.00  0.00     0.183 S 
ATOM     14  O1   11 d         -14.894 203.498 121.818  0.00  0.00    -0.222 OA
ATOM     15  O2   11 d         -16.474 202.130 120.544  0.00  0.00    -0.222 OA
BRANCH  13  16
ATOM     16  C11  11 d         -17.352 204.627 121.342  0.00  0.00     0.058 C 
ATOM     17  C12  11 d         -17.642 204.259 122.809  0.00  0.00     0.031 C 
ATOM     18  C13  11 d         -18.622 204.410 120.501  0.00  0.00     0.031 C 
ATOM     19  C14  11 d         -16.913 206.100 121.253  0.00  0.00     0.031 C 
ENDBRANCH  13  16
ENDBRANCH  10  13
TORSDOF 2
ENDMDL
MODEL 11
REMARK VINA RESULT:      -6.7      3.459      6.927
REMARK  2 active torsions:
REMARK  status: ('A' for Active; 'I' for Inactive)
REMARK    1  A    between atoms: C10_10  and  S1_11 
REMARK    2  A    between atoms: S1_11  and  C11_12 
ROOT
ATOM      1  C1   11 d         -13.371 206.633 114.039  0.00  0.00    -0.026 A 
ATOM      2  C2   11 d         -14.060 206.539 112.717  0.00  0.00    -0.026 A 
ATOM      3  C3   11 d         -14.076 205.324 111.994  0.00  0.00     0.012 A 
ATOM      4  C4   11 d         -14.724 205.237 110.754  0.00  0.00     0.001 A 
ATOM      5  C5   11 d         -15.367 206.359 110.216  0.00  0.00     0.000 A 
ATOM      6  C6   11 d         -15.360 207.571 110.919  0.00  0.00     0.001 A 
ATOM      7  C7   11 d         -14.712 207.663 112.160  0.00  0.00     0.012 A 
ATOM      8  C8   11 d         -13.895 207.439 115.074  0.00  0.00     0.014 A 
ATOM      9  C9   11 d         -13.249 207.524 116.315  0.00  0.00     0.024 A 
ATOM     10  C10  11 d         -12.071 206.797 116.555  0.00  0.00     0.060 A 
ATOM     11  C15  11 d         -11.533 206.003 115.529  0.00  0.00     0.024 A 
ATOM     12  C16  11 d         -12.176 205.920 114.284  0.00  0.00     0.014 A 
ENDROOT
BRANCH  10  13
ATOM     13  S1   11 d         -11.248 206.893 118.156  0.00  0.00     0.183 S 
ATOM     14  O1   11 d         -11.018 205.474 118.685  0.00  0.00    -0.222 OA
ATOM     15  O2   11 d         -12.188 207.572 119.153  0.00  0.00    -0.222 OA
BRANCH  13  16
ATOM     16  C11  11 d          -9.634 207.778 118.116  0.00  0.00     0.058 C 
ATOM     17  C12  11 d          -9.471 208.431 116.731  0.00  0.00     0.031 C 
ATOM     18  C13  11 d          -8.470 206.802 118.360  0.00  0.00     0.031 C 
ATOM     19  C14  11 d          -9.641 208.865 119.205  0.00  0.00     0.031 C 
ENDBRANCH  13  16
ENDBRANCH  10  13
TORSDOF 2
ENDMDL
MODEL 12
REMARK VINA RESULT:      -6.7      5.687      7.266
REMARK  2 active torsions:
REMARK  status: ('A' for Active; 'I' for Inactive)
REMARK    1  A    between atoms: C10_10  and  S1_11 
REMARK    2  A    between atoms: S1_11  and  C11_12 
ROOT
ATOM      1  C1   11 d         -13.723 206.106 116.595  0.00  0.00    -0.026 A 
ATOM      2  C2   11 d         -13.421 206.322 115.148  0.00  0.00    -0.026 A 
ATOM      3  C3   11 d         -14.165 205.656 114.147  0.00  0.00     0.012 A 
ATOM      4  C4   11 d         -13.881 205.861 112.789  0.00  0.00     0.001 A 
ATOM      5  C5   11 d         -12.851 206.732 112.408  0.00  0.00     0.000 A 
ATOM      6  C6   11 d         -12.104 207.398 113.388  0.00  0.00     0.001 A 
ATOM      7  C7   11 d         -12.384 207.196 114.748  0.00  0.00     0.012 A 
ATOM      8  C8   11 d         -13.608 207.164 117.524  0.00  0.00     0.014 A 
ATOM      9  C9   11 d         -13.896 206.960 118.882  0.00  0.00     0.024 A 
ATOM     10  C10  11 d         -14.314 205.699 119.340  0.00  0.00     0.060 A 
ATOM     11  C15  11 d         -14.417 204.638 118.427  0.00  0.00     0.024 A 
ATOM     12  C16  11 d         -14.127 204.838 117.068  0.00  0.00     0.014 A 
ENDROOT
BRANCH  10  13
ATOM     13  S1   11 d         -14.697 205.441 121.081  0.00  0.00     0.183 S 
ATOM     14  O1   11 d         -13.930 206.469 121.920  0.00  0.00    -0.222 OA
ATOM     15  O2   11 d         -14.169 204.068 121.503  0.00  0.00    -0.222 OA
BRANCH  13  16
ATOM     16  C11  11 d         -16.489 205.572 121.481  0.00  0.00     0.058 C 
ATOM     17  C12  11 d         -17.018 206.903 120.917  0.00  0.00     0.031 C 
ATOM     18  C13  11 d         -16.713 205.537 123.003  0.00  0.00     0.031 C 
ATOM     19  C14  11 d         -17.229 204.396 120.819  0.00  0.00     0.031 C 
ENDBRANCH  13  16
ENDBRANCH  10  13
TORSDOF 2
ENDMDL
MODEL 13
REMARK VINA RESULT:      -6.6      4.723      7.027
REMARK  2 active torsions:
REMARK  status: ('A' for Active; 'I' for Inactive)
REMARK    1  A    between atoms: C10_10  and  S1_11 
REMARK    2  A    between atoms: S1_11  and  C11_12 
ROOT
ATOM      1  C1   11 d         -14.401 204.781 116.942  0.00  0.00    -0.026 A 
ATOM      2  C2   11 d         -14.983 204.133 118.156  0.00  0.00    -0.026 A 
ATOM      3  C3   11 d         -15.915 203.077 118.036  0.00  0.00     0.012 A 
ATOM      4  C4   11 d         -16.461 202.469 119.176  0.00  0.00     0.001 A 
ATOM      5  C5   11 d         -16.083 202.904 120.453  0.00  0.00     0.000 A 
ATOM      6  C6   11 d         -15.161 203.950 120.590  0.00  0.00     0.001 A 
ATOM      7  C7   11 d         -14.614 204.561 119.452  0.00  0.00     0.012 A 
ATOM      8  C8   11 d         -13.060 205.226 116.931  0.00  0.00     0.014 A 
ATOM      9  C9   11 d         -12.515 205.831 115.790  0.00  0.00     0.024 A 
ATOM     10  C10  11 d         -13.291 205.994 114.631  0.00  0.00     0.060 A 
ATOM     11  C15  11 d         -14.629 205.568 114.635  0.00  0.00     0.024 A 
ATOM     12  C16  11 d         -15.178 204.965 115.778  0.00  0.00     0.014 A 
ENDROOT
BRANCH  10  13
ATOM     13  S1   11 d         -12.586 206.758 113.159  0.00  0.00     0.183 S 
ATOM     14  O1   11 d         -11.201 206.156 112.898  0.00  0.00    -0.222 OA
ATOM     15  O2   11 d         -12.357 208.245 113.437  0.00  0.00    -0.222 OA
BRANCH  13  16
ATOM     16  C11  11 d         -13.613 206.556 111.645  0.00  0.00     0.058 C 
ATOM     17  C12  11 d         -12.782 207.006 110.429  0.00  0.00     0.031 C 
ATOM     18  C13  11 d         -14.890 207.410 111.733  0.00  0.00     0.031 C 
ATOM     19  C14  11 d         -13.987 205.071 111.498  0.00  0.00     0.031 C 
ENDBRANCH  13  16
ENDBRANCH  10  13
TORSDOF 2
ENDMDL
MODEL 14
REMARK VINA RESULT:      -6.5      2.950      3.993
REMARK  2 active torsions:
REMARK  status: ('A' for Active; 'I' for Inactive)
REMARK    1  A    between atoms: C10_10  and  S1_11 
REMARK    2  A    between atoms: S1_11  and  C11_12 
ROOT
ATOM      1  C1   11 d         -11.892 206.480 115.686  0.00  0.00    -0.026 A 
ATOM      2  C2   11 d         -11.171 206.773 116.962  0.00  0.00    -0.026 A 
ATOM      3  C3   11 d         -10.338 207.909 117.077  0.00  0.00     0.012 A 
ATOM      4  C4   11 d          -9.662 208.183 118.275  0.00  0.00     0.001 A 
ATOM      5  C5   11 d          -9.808 207.329 119.377  0.00  0.00     0.000 A 
ATOM      6  C6   11 d         -10.630 206.198 119.278  0.00  0.00     0.001 A 
ATOM      7  C7   11 d         -11.306 205.920 118.081  0.00  0.00     0.012 A 
ATOM      8  C8   11 d         -13.186 205.916 115.699  0.00  0.00     0.014 A 
ATOM      9  C9   11 d         -13.863 205.645 114.501  0.00  0.00     0.024 A 
ATOM     10  C10  11 d         -13.267 205.942 113.264  0.00  0.00     0.060 A 
ATOM     11  C15  11 d         -11.974 206.490 113.240  0.00  0.00     0.024 A 
ATOM     12  C16  11 d         -11.294 206.759 114.437  0.00  0.00     0.014 A 
ENDROOT
BRANCH  10  13
ATOM     13  S1   11 d         -14.141 205.608 111.724  0.00  0.00     0.183 S 
ATOM     14  O1   11 d         -14.653 204.164 111.744  0.00  0.00    -0.222 OA
ATOM     15  O2   11 d         -13.146 205.690 110.565  0.00  0.00    -0.222 OA
BRANCH  13  16
ATOM     16  C11  11 d         -15.562 206.734 111.410  0.00  0.00     0.058 C 
ATOM     17  C12  11 d         -15.421 207.964 112.326  0.00  0.00     0.031 C 
ATOM     18  C13  11 d         -16.897 206.027 111.708  0.00  0.00     0.031 C 
ATOM     19  C14  11 d         -15.524 207.177 109.937  0.00  0.00     0.031 C 
ENDBRANCH  13  16
ENDBRANCH  10  13
TORSDOF 2
ENDMDL
MODEL 15
REMARK VINA RESULT:      -6.4      5.424      6.973
REMARK  2 active torsions:
REMARK  status: ('A' for Active; 'I' for Inactive)
REMARK    1  A    between atoms: C10_10  and  S1_11 
REMARK    2  A    between atoms: S1_11  and  C11_12 
ROOT
ATOM      1  C1   11 d         -12.965 206.515 116.622  0.00  0.00    -0.026 A 
ATOM      2  C2   11 d         -12.316 206.772 115.302  0.00  0.00    -0.026 A 
ATOM      3  C3   11 d         -12.771 206.120 114.133  0.00  0.00     0.012 A 
ATOM      4  C4   11 d         -12.162 206.363 112.893  0.00  0.00     0.001 A 
ATOM      5  C5   11 d         -11.090 207.261 112.800  0.00  0.00     0.000 A 
ATOM      6  C6   11 d         -10.626 207.915 113.949  0.00  0.00     0.001 A 
ATOM      7  C7   11 d         -11.232 207.673 115.191  0.00  0.00     0.012 A 
ATOM      8  C8   11 d         -13.110 207.551 117.572  0.00  0.00     0.014 A 
ATOM      9  C9   11 d         -13.723 207.308 118.810  0.00  0.00     0.024 A 
ATOM     10  C10  11 d         -14.214 206.030 119.123  0.00  0.00     0.060 A 
ATOM     11  C15  11 d         -14.062 204.990 118.192  0.00  0.00     0.024 A 
ATOM     12  C16  11 d         -13.446 205.229 116.954  0.00  0.00     0.014 A 
ENDROOT
BRANCH  10  13
ATOM     13  S1   11 d         -15.014 205.722 120.708  0.00  0.00     0.183 S 
ATOM     14  O1   11 d         -16.134 204.695 120.511  0.00  0.00    -0.222 OA
ATOM     15  O2   11 d         -15.696 207.010 121.174  0.00  0.00    -0.222 OA
BRANCH  13  16
ATOM     16  C11  11 d         -13.874 205.108 122.016  0.00  0.00     0.058 C 
ATOM     17  C12  11 d         -14.017 206.016 123.252  0.00  0.00     0.031 C 
ATOM     18  C13  11 d         -12.415 205.139 121.528  0.00  0.00     0.031 C 
ATOM     19  C14  11 d         -14.272 203.667 122.381  0.00  0.00     0.031 C 
ENDBRANCH  13  16
ENDBRANCH  10  13
TORSDOF 2
ENDMDL
MODEL 16
REMARK VINA RESULT:      -6.3      4.491      7.639
REMARK  2 active torsions:
REMARK  status: ('A' for Active; 'I' for Inactive)
REMARK    1  A    between atoms: C10_10  and  S1_11 
REMARK    2  A    between atoms: S1_11  and  C11_12 
ROOT
ATOM      1  C1   11 d         -11.232 207.303 115.496  0.00  0.00    -0.026 A 
ATOM      2  C2   11 d         -11.950 207.104 114.201  0.00  0.00    -0.026 A 
ATOM      3  C3   11 d         -11.275 207.256 112.969  0.00  0.00     0.012 A 
ATOM      4  C4   11 d         -11.951 207.068 111.754  0.00  0.00     0.001 A 
ATOM      5  C5   11 d         -13.309 206.725 111.751  0.00  0.00     0.000 A 
ATOM      6  C6   11 d         -13.993 206.572 112.964  0.00  0.00     0.001 A 
ATOM      7  C7   11 d         -13.321 206.760 114.181  0.00  0.00     0.012 A 
ATOM      8  C8   11 d         -11.539 206.511 116.624  0.00  0.00     0.014 A 
ATOM      9  C9   11 d         -10.861 206.697 117.838  0.00  0.00     0.024 A 
ATOM     10  C10  11 d          -9.853 207.669 117.949  0.00  0.00     0.060 A 
ATOM     11  C15  11 d          -9.549 208.472 116.837  0.00  0.00     0.024 A 
ATOM     12  C16  11 d         -10.229 208.290 115.622  0.00  0.00     0.014 A 
ENDROOT
BRANCH  10  13
ATOM     13  S1   11 d          -8.972 207.898 119.503  0.00  0.00     0.183 S 
ATOM     14  O1   11 d          -9.527 206.919 120.542  0.00  0.00    -0.222 OA
ATOM     15  O2   11 d          -9.271 209.301 120.037  0.00  0.00    -0.222 OA
BRANCH  13  16
ATOM     16  C11  11 d          -7.152 207.654 119.375  0.00  0.00     0.058 C 
ATOM     17  C12  11 d          -6.886 206.435 118.473  0.00  0.00     0.031 C 
ATOM     18  C13  11 d          -6.534 207.406 120.763  0.00  0.00     0.031 C 
ATOM     19  C14  11 d          -6.529 208.912 118.745  0.00  0.00     0.031 C 
ENDBRANCH  13  16
ENDBRANCH  10  13
TORSDOF 2
ENDMDL
MODEL 17
REMARK VINA RESULT:      -6.3      6.150      9.566
REMARK  2 active torsions:
REMARK  status: ('A' for Active; 'I' for Inactive)
REMARK    1  A    between atoms: C10_10  and  S1_11 
REMARK    2  A    between atoms: S1_11  and  C11_12 
ROOT
ATOM      1  C1   11 d          -7.008 209.213 115.582  0.00  0.00    -0.026 A 
ATOM      2  C2   11 d          -7.832 208.960 114.362  0.00  0.00    -0.026 A 
ATOM      3  C3   11 d          -7.241 208.957 113.078  0.00  0.00     0.012 A 
ATOM      4  C4   11 d          -8.016 208.719 111.934  0.00  0.00     0.001 A 
ATOM      5  C5   11 d          -9.391 208.479 112.052  0.00  0.00     0.000 A 
ATOM      6  C6   11 d          -9.993 208.480 113.318  0.00  0.00     0.001 A 
ATOM      7  C7   11 d          -9.221 208.719 114.465  0.00  0.00     0.012 A 
ATOM      8  C8   11 d          -7.285 208.544 116.795  0.00  0.00     0.014 A 
ATOM      9  C9   11 d          -6.508 208.780 117.939  0.00  0.00     0.024 A 
ATOM     10  C10  11 d          -5.431 209.680 117.894  0.00  0.00     0.060 A 
ATOM     11  C15  11 d          -5.155 210.361 116.697  0.00  0.00     0.024 A 
ATOM     12  C16  11 d          -5.933 210.130 115.552  0.00  0.00     0.014 A 
ENDROOT
BRANCH  10  13
ATOM     13  S1   11 d          -4.423 209.973 119.359  0.00  0.00     0.183 S 
ATOM     14  O1   11 d          -2.995 210.315 118.923  0.00  0.00    -0.222 OA
ATOM     15  O2   11 d          -4.324 208.671 120.156  0.00  0.00    -0.222 OA
BRANCH  13  16
ATOM     16  C11  11 d          -5.049 211.323 120.441  0.00  0.00     0.058 C 
ATOM     17  C12  11 d          -6.301 211.933 119.785  0.00  0.00     0.031 C 
ATOM     18  C13  11 d          -3.983 212.418 120.623  0.00  0.00     0.031 C 
ATOM     19  C14  11 d          -5.420 210.725 121.810  0.00  0.00     0.031 C 
ENDBRANCH  13  16
ENDBRANCH  10  13
TORSDOF 2
ENDMDL
MODEL 18
REMARK VINA RESULT:      -6.1     19.676     20.705
REMARK  2 active torsions:
REMARK  status: ('A' for Active; 'I' for Inactive)
REMARK    1  A    between atoms: C10_10  and  S1_11 
REMARK    2  A    between atoms: S1_11  and  C11_12 
ROOT
ATOM      1  C1   11 d         -26.374 195.882 106.307  0.00  0.00    -0.026 A 
ATOM      2  C2   11 d         -26.383 195.558 107.765  0.00  0.00    -0.026 A 
ATOM      3  C3   11 d         -27.297 196.188 108.640  0.00  0.00     0.012 A 
ATOM      4  C4   11 d         -27.304 195.883 110.009  0.00  0.00     0.001 A 
ATOM      5  C5   11 d         -26.402 194.943 110.525  0.00  0.00     0.000 A 
ATOM      6  C6   11 d         -25.489 194.310 109.671  0.00  0.00     0.001 A 
ATOM      7  C7   11 d         -25.478 194.615 108.302  0.00  0.00     0.012 A 
ATOM      8  C8   11 d         -26.103 194.884 105.344  0.00  0.00     0.014 A 
ATOM      9  C9   11 d         -26.099 195.189 103.976  0.00  0.00     0.024 A 
ATOM     10  C10  11 d         -26.376 196.495 103.536  0.00  0.00     0.060 A 
ATOM     11  C15  11 d         -26.633 197.498 104.485  0.00  0.00     0.024 A 
ATOM     12  C16  11 d         -26.634 197.195 105.856  0.00  0.00     0.014 A 
ENDROOT
BRANCH  10  13
ATOM     13  S1   11 d         -26.385 196.884 101.777  0.00  0.00     0.183 S 
ATOM     14  O1   11 d         -27.291 198.097 101.539  0.00  0.00    -0.222 OA
ATOM     15  O2   11 d         -27.025 195.720 101.018  0.00  0.00    -0.222 OA
BRANCH  13  16
ATOM     16  C11  11 d         -24.720 197.244 101.081  0.00  0.00     0.058 C 
ATOM     17  C12  11 d         -24.023 198.271 101.992  0.00  0.00     0.031 C 
ATOM     18  C13  11 d         -24.835 197.820  99.658  0.00  0.00     0.031 C 
ATOM     19  C14  11 d         -23.906 195.939 101.051  0.00  0.00     0.031 C 
ENDBRANCH  13  16
ENDBRANCH  10  13
TORSDOF 2
ENDMDL
MODEL 19
REMARK VINA RESULT:      -6.1      2.405      3.279
REMARK  2 active torsions:
REMARK  status: ('A' for Active; 'I' for Inactive)
REMARK    1  A    between atoms: C10_10  and  S1_11 
REMARK    2  A    between atoms: S1_11  and  C11_12 
ROOT
ATOM      1  C1   11 d         -11.524 207.491 116.022  0.00  0.00    -0.026 A 
ATOM      2  C2   11 d         -10.413 207.838 116.958  0.00  0.00    -0.026 A 
ATOM      3  C3   11 d         -10.686 208.282 118.272  0.00  0.00     0.012 A 
ATOM      4  C4   11 d          -9.641 208.606 119.150  0.00  0.00     0.001 A 
ATOM      5  C5   11 d          -8.309 208.491 118.732  0.00  0.00     0.000 A 
ATOM      6  C6   11 d          -8.021 208.053 117.433  0.00  0.00     0.001 A 
ATOM      7  C7   11 d          -9.063 207.729 116.551  0.00  0.00     0.012 A 
ATOM      8  C8   11 d         -11.391 206.429 115.101  0.00  0.00     0.014 A 
ATOM      9  C9   11 d         -12.437 206.103 114.225  0.00  0.00     0.024 A 
ATOM     10  C10  11 d         -13.643 206.823 114.257  0.00  0.00     0.060 A 
ATOM     11  C15  11 d         -13.780 207.890 115.160  0.00  0.00     0.024 A 
ATOM     12  C16  11 d         -12.734 208.220 116.035  0.00  0.00     0.014 A 
ENDROOT
BRANCH  10  13
ATOM     13  S1   11 d         -14.992 206.395 113.143  0.00  0.00     0.183 S 
ATOM     14  O1   11 d         -16.054 207.498 113.197  0.00  0.00    -0.222 OA
ATOM     15  O2   11 d         -15.672 205.124 113.658  0.00  0.00    -0.222 OA
BRANCH  13  16
ATOM     16  C11  11 d         -14.472 206.160 111.393  0.00  0.00     0.058 C 
ATOM     17  C12  11 d         -14.393 204.649 111.106  0.00  0.00     0.031 C 
ATOM     18  C13  11 d         -13.096 206.800 111.141  0.00  0.00     0.031 C 
ATOM     19  C14  11 d         -15.524 206.809 110.475  0.00  0.00     0.031 C 
ENDBRANCH  13  16
ENDBRANCH  10  13
TORSDOF 2
ENDMDL
