MODEL 1
REMARK VINA RESULT:      -7.7      0.000      0.000
REMARK  3 active torsions:
REMARK  status: ('A' for Active; 'I' for Inactive)
REMARK    1  A    between atoms: C1_1  and  C2_2 
REMARK       I    between atoms: C1_1  and  N3_9 
REMARK    2  A    between atoms: N3_9  and  N4_10 
REMARK    3  A    between atoms: C6_11  and  C7_12 
ROOT
ATOM      1  C1   11 d          -8.962 208.864 114.171  0.00  0.00     0.292 C 
ATOM      2  O1   11 d          -9.777 209.524 114.910  0.00  0.00    -0.264 OA
ATOM      3  N3   11 d          -9.452 207.786 113.377  0.00  0.00    -0.242 N 
ATOM      4  H6   11 d          -8.817 207.198 112.740  0.00  0.00     0.192 HD
ENDROOT
BRANCH   3   5
ATOM      5  N4   11 d         -10.814 207.482 113.426  0.00  0.00    -0.183 NA
ATOM      6  C6   11 d         -11.398 207.330 112.265  0.00  0.00     0.150 C 
BRANCH   6   7
ATOM      7  C7   11 d         -12.839 206.980 112.174  0.00  0.00    -0.017 A 
ATOM      8  C8   11 d         -13.375 206.342 111.035  0.00  0.00     0.014 A 
ATOM      9  C9   11 d         -14.743 206.031 110.971  0.00  0.00     0.024 A 
ATOM     10  C10  11 d         -15.588 206.354 112.042  0.00  0.00     0.034 A 
ATOM     11 Cl1   11 d         -17.322 205.962 111.958  0.00  0.00    -0.084 Cl
ATOM     12  C11  11 d         -15.065 206.986 113.180  0.00  0.00     0.024 A 
ATOM     13  C12  11 d         -13.698 207.299 113.246  0.00  0.00     0.014 A 
ENDBRANCH   6   7
ENDBRANCH   3   5
BRANCH   1  14
ATOM     14  C2   11 d          -7.529 209.248 114.166  0.00  0.00     0.148 A 
ATOM     15  C3   11 d          -6.480 208.610 113.521  0.00  0.00     0.065 A 
ATOM     16  C4   11 d          -5.343 209.331 113.830  0.00  0.00     0.026 A 
ATOM     17  N1   11 d          -5.738 210.385 114.568  0.00  0.00    -0.282 N 
ATOM     18  C5   11 d          -3.987 209.149 113.225  0.00  0.00     0.070 C 
ATOM     19  N2   11 d          -7.018 210.332 114.793  0.00  0.00    -0.169 NA
ATOM     20  H2   11 d          -5.110 211.152 114.917  0.00  0.00     0.189 HD
ENDBRANCH   1  14
TORSDOF 3
ENDMDL
MODEL 2
REMARK VINA RESULT:      -7.7      1.562      1.956
REMARK  3 active torsions:
REMARK  status: ('A' for Active; 'I' for Inactive)
REMARK    1  A    between atoms: C1_1  and  C2_2 
REMARK       I    between atoms: C1_1  and  N3_9 
REMARK    2  A    between atoms: N3_9  and  N4_10 
REMARK    3  A    between atoms: C6_11  and  C7_12 
ROOT
ATOM      1  C1   11 d          -8.934 208.491 112.567  0.00  0.00     0.292 C 
ATOM      2  O1   11 d          -9.518 209.332 111.795  0.00  0.00    -0.264 OA
ATOM      3  N3   11 d          -9.721 207.588 113.341  0.00  0.00    -0.242 N 
ATOM      4  H6   11 d          -9.289 206.862 114.005  0.00  0.00     0.192 HD
ENDROOT
BRANCH   3   5
ATOM      5  N4   11 d         -11.112 207.647 113.230  0.00  0.00    -0.183 NA
ATOM      6  C6   11 d         -11.650 206.763 112.430  0.00  0.00     0.150 C 
BRANCH   6   7
ATOM      7  C7   11 d         -13.122 206.699 112.240  0.00  0.00    -0.017 A 
ATOM      8  C8   11 d         -14.016 206.962 113.301  0.00  0.00     0.014 A 
ATOM      9  C9   11 d         -15.403 206.884 113.098  0.00  0.00     0.024 A 
ATOM     10  C10  11 d         -15.911 206.545 111.836  0.00  0.00     0.034 A 
ATOM     11 Cl1   11 d         -17.670 206.444 111.581  0.00  0.00    -0.084 Cl
ATOM     12  C11  11 d         -15.031 206.284 110.775  0.00  0.00     0.024 A 
ATOM     13  C12  11 d         -13.644 206.358 110.976  0.00  0.00     0.014 A 
ENDBRANCH   6   7
ENDBRANCH   3   5
BRANCH   1  14
ATOM     14  C2   11 d          -7.452 208.482 112.629  0.00  0.00     0.148 A 
ATOM     15  C3   11 d          -6.647 208.588 113.752  0.00  0.00     0.065 A 
ATOM     16  C4   11 d          -5.342 208.548 113.297  0.00  0.00     0.026 A 
ATOM     17  N1   11 d          -5.401 208.356 111.966  0.00  0.00    -0.282 N 
ATOM     18  C5   11 d          -4.112 208.442 114.141  0.00  0.00     0.070 C 
ATOM     19  N2   11 d          -6.635 208.341 111.559  0.00  0.00    -0.169 NA
ATOM     20  H2   11 d          -4.570 208.230 111.334  0.00  0.00     0.189 HD
ENDBRANCH   1  14
TORSDOF 3
ENDMDL
MODEL 3
REMARK VINA RESULT:      -7.7      0.128      1.146
REMARK  3 active torsions:
REMARK  status: ('A' for Active; 'I' for Inactive)
REMARK    1  A    between atoms: C1_1  and  C2_2 
REMARK       I    between atoms: C1_1  and  N3_9 
REMARK    2  A    between atoms: N3_9  and  N4_10 
REMARK    3  A    between atoms: C6_11  and  C7_12 
ROOT
ATOM      1  C1   11 d          -8.881 208.922 114.148  0.00  0.00     0.292 C 
ATOM      2  O1   11 d          -9.668 209.593 114.907  0.00  0.00    -0.264 OA
ATOM      3  N3   11 d          -9.410 207.862 113.353  0.00  0.00    -0.242 N 
ATOM      4  H6   11 d          -8.801 207.266 112.699  0.00  0.00     0.192 HD
ENDROOT
BRANCH   3   5
ATOM      5  N4   11 d         -10.778 207.589 113.424  0.00  0.00    -0.183 NA
ATOM      6  C6   11 d         -11.360 207.333 112.280  0.00  0.00     0.150 C 
BRANCH   6   7
ATOM      7  C7   11 d         -12.806 207.001 112.217  0.00  0.00    -0.017 A 
ATOM      8  C8   11 d         -13.714 207.458 113.196  0.00  0.00     0.014 A 
ATOM      9  C9   11 d         -15.075 207.121 113.119  0.00  0.00     0.024 A 
ATOM     10  C10  11 d         -15.543 206.326 112.063  0.00  0.00     0.034 A 
ATOM     11 Cl1   11 d         -17.268 205.898 111.966  0.00  0.00    -0.084 Cl
ATOM     12  C11  11 d         -14.649 205.869 111.082  0.00  0.00     0.024 A 
ATOM     13  C12  11 d         -13.288 206.203 111.159  0.00  0.00     0.014 A 
ENDBRANCH   6   7
ENDBRANCH   3   5
BRANCH   1  14
ATOM     14  C2   11 d          -7.441 209.273 114.120  0.00  0.00     0.148 A 
ATOM     15  C3   11 d          -6.418 208.616 113.453  0.00  0.00     0.065 A 
ATOM     16  C4   11 d          -5.259 209.308 113.746  0.00  0.00     0.026 A 
ATOM     17  N1   11 d          -5.617 210.366 114.498  0.00  0.00    -0.282 N 
ATOM     18  C5   11 d          -3.918 209.100 113.117  0.00  0.00     0.070 C 
ATOM     19  N2   11 d          -6.894 210.341 114.745  0.00  0.00    -0.169 NA
ATOM     20  H2   11 d          -4.965 211.116 114.841  0.00  0.00     0.189 HD
ENDBRANCH   1  14
TORSDOF 3
ENDMDL
MODEL 4
REMARK VINA RESULT:      -7.5      4.070      8.431
REMARK  3 active torsions:
REMARK  status: ('A' for Active; 'I' for Inactive)
REMARK    1  A    between atoms: C1_1  and  C2_2 
REMARK       I    between atoms: C1_1  and  N3_9 
REMARK    2  A    between atoms: N3_9  and  N4_10 
REMARK    3  A    between atoms: C6_11  and  C7_12 
ROOT
ATOM      1  C1   11 d         -12.343 206.966 111.487  0.00  0.00     0.292 C 
ATOM      2  O1   11 d         -11.514 206.993 110.508  0.00  0.00    -0.264 OA
ATOM      3  N3   11 d         -11.856 207.098 112.820  0.00  0.00    -0.242 N 
ATOM      4  H6   11 d         -12.502 207.082 113.679  0.00  0.00     0.192 HD
ENDROOT
BRANCH   3   5
ATOM      5  N4   11 d         -10.483 207.258 113.020  0.00  0.00    -0.183 NA
ATOM      6  C6   11 d         -10.051 208.493 112.984  0.00  0.00     0.150 C 
BRANCH   6   7
ATOM      7  C7   11 d          -8.616 208.806 113.207  0.00  0.00    -0.017 A 
ATOM      8  C8   11 d          -7.616 208.369 112.312  0.00  0.00     0.014 A 
ATOM      9  C9   11 d          -6.265 208.669 112.551  0.00  0.00     0.024 A 
ATOM     10  C10  11 d          -5.900 209.409 113.685  0.00  0.00     0.034 A 
ATOM     11 Cl1   11 d          -4.187 209.788 113.988  0.00  0.00    -0.084 Cl
ATOM     12  C11  11 d          -6.887 209.851 114.579  0.00  0.00     0.024 A 
ATOM     13  C12  11 d          -8.237 209.549 114.343  0.00  0.00     0.014 A 
ENDBRANCH   6   7
ENDBRANCH   3   5
BRANCH   1  14
ATOM     14  C2   11 d         -13.788 206.798 111.197  0.00  0.00     0.148 A 
ATOM     15  C3   11 d         -14.773 206.308 112.041  0.00  0.00     0.065 A 
ATOM     16  C4   11 d         -15.948 206.329 111.314  0.00  0.00     0.026 A 
ATOM     17  N1   11 d         -15.658 206.878 110.120  0.00  0.00    -0.282 N 
ATOM     18  C5   11 d         -17.323 206.071 111.844  0.00  0.00     0.070 C 
ATOM     19  N2   11 d         -14.386 207.134 110.031  0.00  0.00    -0.169 NA
ATOM     20  H2   11 d         -16.354 207.080 109.359  0.00  0.00     0.189 HD
ENDBRANCH   1  14
TORSDOF 3
ENDMDL
MODEL 5
REMARK VINA RESULT:      -7.5      1.235      1.298
REMARK  3 active torsions:
REMARK  status: ('A' for Active; 'I' for Inactive)
REMARK    1  A    between atoms: C1_1  and  C2_2 
REMARK       I    between atoms: C1_1  and  N3_9 
REMARK    2  A    between atoms: N3_9  and  N4_10 
REMARK    3  A    between atoms: C6_11  and  C7_12 
ROOT
ATOM      1  C1   11 d          -8.267 209.279 113.895  0.00  0.00     0.292 C 
ATOM      2  O1   11 d          -9.086 210.263 113.810  0.00  0.00    -0.264 OA
ATOM      3  N3   11 d          -8.612 208.028 113.304  0.00  0.00    -0.242 N 
ATOM      4  H6   11 d          -7.967 207.170 113.343  0.00  0.00     0.192 HD
ENDROOT
BRANCH   3   5
ATOM      5  N4   11 d          -9.838 207.913 112.645  0.00  0.00    -0.183 NA
ATOM      6  C6   11 d         -10.765 207.257 113.295  0.00  0.00     0.150 C 
BRANCH   6   7
ATOM      7  C7   11 d         -12.123 207.083 112.719  0.00  0.00    -0.017 A 
ATOM      8  C8   11 d         -12.327 206.411 111.494  0.00  0.00     0.014 A 
ATOM      9  C9   11 d         -13.620 206.270 110.966  0.00  0.00     0.024 A 
ATOM     10  C10  11 d         -14.722 206.796 111.656  0.00  0.00     0.034 A 
ATOM     11 Cl1   11 d         -16.361 206.618 110.984  0.00  0.00    -0.084 Cl
ATOM     12  C11  11 d         -14.531 207.463 112.875  0.00  0.00     0.024 A 
ATOM     13  C12  11 d         -13.239 207.608 113.404  0.00  0.00     0.014 A 
ENDBRANCH   6   7
ENDBRANCH   3   5
BRANCH   1  14
ATOM     14  C2   11 d          -6.981 209.477 114.606  0.00  0.00     0.148 A 
ATOM     15  C3   11 d          -6.026 208.522 114.921  0.00  0.00     0.065 A 
ATOM     16  C4   11 d          -5.021 209.188 115.596  0.00  0.00     0.026 A 
ATOM     17  N1   11 d          -5.357 210.491 115.606  0.00  0.00    -0.282 N 
ATOM     18  C5   11 d          -3.689 208.627 115.981  0.00  0.00     0.070 C 
ATOM     19  N2   11 d          -6.518 210.669 115.049  0.00  0.00    -0.169 NA
ATOM     20  H2   11 d          -4.768 211.267 116.002  0.00  0.00     0.189 HD
ENDBRANCH   1  14
TORSDOF 3
ENDMDL
MODEL 6
REMARK VINA RESULT:      -7.0      5.741      8.006
REMARK  3 active torsions:
REMARK  status: ('A' for Active; 'I' for Inactive)
REMARK    1  A    between atoms: C1_1  and  C2_2 
REMARK       I    between atoms: C1_1  and  N3_9 
REMARK    2  A    between atoms: N3_9  and  N4_10 
REMARK    3  A    between atoms: C6_11  and  C7_12 
ROOT
ATOM      1  C1   11 d         -13.857 206.905 118.585  0.00  0.00     0.292 C 
ATOM      2  O1   11 d         -12.913 207.773 118.614  0.00  0.00    -0.264 OA
ATOM      3  N3   11 d         -14.350 206.449 117.328  0.00  0.00    -0.242 N 
ATOM      4  H6   11 d         -15.138 205.724 117.241  0.00  0.00     0.192 HD
ENDROOT
BRANCH   3   5
ATOM      5  N4   11 d         -13.785 206.963 116.159  0.00  0.00    -0.183 NA
ATOM      6  C6   11 d         -13.256 206.077 115.353  0.00  0.00     0.150 C 
BRANCH   6   7
ATOM      7  C7   11 d         -12.643 206.487 114.064  0.00  0.00    -0.017 A 
ATOM      8  C8   11 d         -11.454 207.245 114.018  0.00  0.00     0.014 A 
ATOM      9  C9   11 d         -10.901 207.629 112.786  0.00  0.00     0.024 A 
ATOM     10  C10  11 d         -11.528 207.258 111.588  0.00  0.00     0.034 A 
ATOM     11 Cl1   11 d         -10.828 207.747 110.026  0.00  0.00    -0.084 Cl
ATOM     12  C11  11 d         -12.710 206.502 111.623  0.00  0.00     0.024 A 
ATOM     13  C12  11 d         -13.266 206.119 112.853  0.00  0.00     0.014 A 
ENDBRANCH   6   7
ENDBRANCH   3   5
BRANCH   1  14
ATOM     14  C2   11 d         -14.405 206.399 119.867  0.00  0.00     0.148 A 
ATOM     15  C3   11 d         -14.661 205.084 120.224  0.00  0.00     0.065 A 
ATOM     16  C4   11 d         -15.180 205.125 121.503  0.00  0.00     0.026 A 
ATOM     17  N1   11 d         -15.158 206.414 121.892  0.00  0.00    -0.282 N 
ATOM     18  C5   11 d         -15.441 203.951 122.393  0.00  0.00     0.070 C 
ATOM     19  N2   11 d         -14.727 207.174 120.929  0.00  0.00    -0.169 NA
ATOM     20  H2   11 d         -15.442 206.768 122.840  0.00  0.00     0.189 HD
ENDBRANCH   1  14
TORSDOF 3
ENDMDL
MODEL 7
REMARK VINA RESULT:      -7.0     13.662     15.053
REMARK  3 active torsions:
REMARK  status: ('A' for Active; 'I' for Inactive)
REMARK    1  A    between atoms: C1_1  and  C2_2 
REMARK       I    between atoms: C1_1  and  N3_9 
REMARK    2  A    between atoms: N3_9  and  N4_10 
REMARK    3  A    between atoms: C6_11  and  C7_12 
ROOT
ATOM      1  C1   11 d          -8.128 218.443 123.749  0.00  0.00     0.292 C 
ATOM      2  O1   11 d          -8.034 217.742 122.679  0.00  0.00    -0.264 OA
ATOM      3  N3   11 d          -8.980 218.001 124.803  0.00  0.00    -0.242 N 
ATOM      4  H6   11 d          -9.099 218.546 125.722  0.00  0.00     0.192 HD
ENDROOT
BRANCH   3   5
ATOM      5  N4   11 d          -9.689 216.809 124.637  0.00  0.00    -0.183 NA
ATOM      6  C6   11 d         -10.476 216.480 125.630  0.00  0.00     0.150 C 
BRANCH   6   7
ATOM      7  C7   11 d         -11.305 215.250 125.572  0.00  0.00    -0.017 A 
ATOM      8  C8   11 d         -11.420 214.381 126.679  0.00  0.00     0.014 A 
ATOM      9  C9   11 d         -12.202 213.219 126.594  0.00  0.00     0.024 A 
ATOM     10  C10  11 d         -12.879 212.912 125.405  0.00  0.00     0.034 A 
ATOM     11 Cl1   11 d         -13.869 211.436 125.298  0.00  0.00    -0.084 Cl
ATOM     12  C11  11 d         -12.774 213.770 124.300  0.00  0.00     0.024 A 
ATOM     13  C12  11 d         -11.991 214.932 124.381  0.00  0.00     0.014 A 
ENDBRANCH   6   7
ENDBRANCH   3   5
BRANCH   1  14
ATOM     14  C2   11 d          -7.341 219.696 123.857  0.00  0.00     0.148 A 
ATOM     15  C3   11 d          -5.968 219.829 123.998  0.00  0.00     0.065 A 
ATOM     16  C4   11 d          -5.718 221.186 124.073  0.00  0.00     0.026 A 
ATOM     17  N1   11 d          -6.900 221.809 123.910  0.00  0.00    -0.282 N 
ATOM     18  C5   11 d          -4.374 221.842 124.044  0.00  0.00     0.070 C 
ATOM     19  N2   11 d          -7.864 220.943 123.807  0.00  0.00    -0.169 NA
ATOM     20  H2   11 d          -7.036 222.851 123.866  0.00  0.00     0.189 HD
ENDBRANCH   1  14
TORSDOF 3
ENDMDL
MODEL 8
REMARK VINA RESULT:      -6.9      5.874      7.768
REMARK  3 active torsions:
REMARK  status: ('A' for Active; 'I' for Inactive)
REMARK    1  A    between atoms: C1_1  and  C2_2 
REMARK       I    between atoms: C1_1  and  N3_9 
REMARK    2  A    between atoms: N3_9  and  N4_10 
REMARK    3  A    between atoms: C6_11  and  C7_12 
ROOT
ATOM      1  C1   11 d         -13.875 205.874 118.197  0.00  0.00     0.292 C 
ATOM      2  O1   11 d         -13.085 206.852 117.945  0.00  0.00    -0.264 OA
ATOM      3  N3   11 d         -14.549 205.223 117.122  0.00  0.00    -0.242 N 
ATOM      4  H6   11 d         -15.222 204.399 117.273  0.00  0.00     0.192 HD
ENDROOT
BRANCH   3   5
ATOM      5  N4   11 d         -14.324 205.672 115.819  0.00  0.00    -0.183 NA
ATOM      6  C6   11 d         -15.339 205.557 115.002  0.00  0.00     0.150 C 
BRANCH   6   7
ATOM      7  C7   11 d         -15.243 206.020 113.594  0.00  0.00    -0.017 A 
ATOM      8  C8   11 d         -14.023 206.472 113.046  0.00  0.00     0.014 A 
ATOM      9  C9   11 d         -13.961 206.915 111.715  0.00  0.00     0.024 A 
ATOM     10  C10  11 d         -15.115 206.909 110.918  0.00  0.00     0.034 A 
ATOM     11 Cl1   11 d         -15.035 207.472 109.231  0.00  0.00    -0.084 Cl
ATOM     12  C11  11 d         -16.332 206.459 111.452  0.00  0.00     0.024 A 
ATOM     13  C12  11 d         -16.396 206.019 112.783  0.00  0.00     0.014 A 
ENDBRANCH   6   7
ENDBRANCH   3   5
BRANCH   1  14
ATOM     14  C2   11 d         -14.061 205.448 119.605  0.00  0.00     0.148 A 
ATOM     15  C3   11 d         -14.931 204.486 120.096  0.00  0.00     0.065 A 
ATOM     16  C4   11 d         -14.751 204.465 121.466  0.00  0.00     0.026 A 
ATOM     17  N1   11 d         -13.761 205.335 121.741  0.00  0.00    -0.282 N 
ATOM     18  C5   11 d         -15.326 203.468 122.420  0.00  0.00     0.070 C 
ATOM     19  N2   11 d         -13.366 205.937 120.658  0.00  0.00    -0.169 NA
ATOM     20  H2   11 d         -13.354 205.509 122.694  0.00  0.00     0.189 HD
ENDBRANCH   1  14
TORSDOF 3
ENDMDL
MODEL 9
REMARK VINA RESULT:      -6.7      6.253      8.894
REMARK  3 active torsions:
REMARK  status: ('A' for Active; 'I' for Inactive)
REMARK    1  A    between atoms: C1_1  and  C2_2 
REMARK       I    between atoms: C1_1  and  N3_9 
REMARK    2  A    between atoms: N3_9  and  N4_10 
REMARK    3  A    between atoms: C6_11  and  C7_12 
ROOT
ATOM      1  C1   11 d         -14.960 203.869 117.715  0.00  0.00     0.292 C 
ATOM      2  O1   11 d         -14.953 202.906 116.867  0.00  0.00    -0.264 OA
ATOM      3  N3   11 d         -14.555 205.171 117.299  0.00  0.00    -0.242 N 
ATOM      4  H6   11 d         -14.540 206.015 117.963  0.00  0.00     0.192 HD
ENDROOT
BRANCH   3   5
ATOM      5  N4   11 d         -14.164 205.359 115.971  0.00  0.00    -0.183 NA
ATOM      6  C6   11 d         -13.198 206.222 115.787  0.00  0.00     0.150 C 
BRANCH   6   7
ATOM      7  C7   11 d         -12.669 206.498 114.427  0.00  0.00    -0.017 A 
ATOM      8  C8   11 d         -11.417 207.120 114.232  0.00  0.00     0.014 A 
ATOM      9  C9   11 d         -10.945 207.380 112.935  0.00  0.00     0.024 A 
ATOM     10  C10  11 d         -11.717 207.020 111.822  0.00  0.00     0.034 A 
ATOM     11 Cl1   11 d         -11.118 207.352 110.178  0.00  0.00    -0.084 Cl
ATOM     12  C11  11 d         -12.961 206.399 112.004  0.00  0.00     0.024 A 
ATOM     13  C12  11 d         -13.436 206.141 113.299  0.00  0.00     0.014 A 
ENDBRANCH   6   7
ENDBRANCH   3   5
BRANCH   1  14
ATOM     14  C2   11 d         -15.392 203.595 119.107  0.00  0.00     0.148 A 
ATOM     15  C3   11 d         -14.957 204.212 120.270  0.00  0.00     0.065 A 
ATOM     16  C4   11 d         -15.637 203.602 121.307  0.00  0.00     0.026 A 
ATOM     17  N1   11 d         -16.483 202.715 120.750  0.00  0.00    -0.282 N 
ATOM     18  C5   11 d         -15.649 204.040 122.738  0.00  0.00     0.070 C 
ATOM     19  N2   11 d         -16.330 202.685 119.460  0.00  0.00    -0.169 NA
ATOM     20  H2   11 d         -17.178 202.127 121.276  0.00  0.00     0.189 HD
ENDBRANCH   1  14
TORSDOF 3
ENDMDL
MODEL 10
REMARK VINA RESULT:      -6.6      3.170      4.531
REMARK  3 active torsions:
REMARK  status: ('A' for Active; 'I' for Inactive)
REMARK    1  A    between atoms: C1_1  and  C2_2 
REMARK       I    between atoms: C1_1  and  N3_9 
REMARK    2  A    between atoms: N3_9  and  N4_10 
REMARK    3  A    between atoms: C6_11  and  C7_12 
ROOT
ATOM      1  C1   11 d          -4.627 208.520 112.804  0.00  0.00     0.292 C 
ATOM      2  O1   11 d          -4.579 208.151 114.032  0.00  0.00    -0.264 OA
ATOM      3  N3   11 d          -5.894 208.674 112.169  0.00  0.00    -0.242 N 
ATOM      4  H6   11 d          -5.996 208.979 111.144  0.00  0.00     0.192 HD
ENDROOT
BRANCH   3   5
ATOM      5  N4   11 d          -7.051 208.420 112.909  0.00  0.00    -0.183 NA
ATOM      6  C6   11 d          -8.178 208.654 112.286  0.00  0.00     0.150 C 
BRANCH   6   7
ATOM      7  C7   11 d          -9.483 208.402 112.950  0.00  0.00    -0.017 A 
ATOM      8  C8   11 d         -10.571 207.835 112.251  0.00  0.00     0.014 A 
ATOM      9  C9   11 d         -11.797 207.617 112.899  0.00  0.00     0.024 A 
ATOM     10  C10  11 d         -11.950 207.962 114.249  0.00  0.00     0.034 A 
ATOM     11 Cl1   11 d         -13.506 207.688 115.069  0.00  0.00    -0.084 Cl
ATOM     12  C11  11 d         -10.874 208.524 114.953  0.00  0.00     0.024 A 
ATOM     13  C12  11 d          -9.648 208.745 114.307  0.00  0.00     0.014 A 
ENDBRANCH   6   7
ENDBRANCH   3   5
BRANCH   1  14
ATOM     14  C2   11 d          -3.357 208.777 112.083  0.00  0.00     0.148 A 
ATOM     15  C3   11 d          -3.021 208.401 110.791  0.00  0.00     0.065 A 
ATOM     16  C4   11 d          -1.731 208.851 110.582  0.00  0.00     0.026 A 
ATOM     17  N1   11 d          -1.368 209.522 111.692  0.00  0.00    -0.282 N 
ATOM     18  C5   11 d          -0.993 208.852 109.281  0.00  0.00     0.070 C 
ATOM     19  N2   11 d          -2.306 209.463 112.590  0.00  0.00    -0.169 NA
ATOM     20  H2   11 d          -0.457 210.030 111.823  0.00  0.00     0.189 HD
ENDBRANCH   1  14
TORSDOF 3
ENDMDL
