MODEL 1
REMARK VINA RESULT:     -10.2      0.000      0.000
REMARK  7 active torsions:
REMARK  status: ('A' for Active; 'I' for Inactive)
REMARK    1  A    between atoms: C1_1  and  C2_2 
REMARK    2  A    between atoms: C1_1  and  O4_12 
REMARK    3  A    between atoms: C5_5  and  N1_6 
REMARK    4  A    between atoms: O4_12  and  C8_13 
REMARK    5  A    between atoms: C9_14  and  C18_23 
REMARK    6  A    between atoms: C18_23  and  N2_24 
REMARK       I    between atoms: N2_24  and  C19_25 
REMARK    7  A    between atoms: C19_25  and  C20_26 
ROOT
ATOM      1  C8   11 d         -11.693 207.549 112.849  0.00  0.00     0.088 A 
ATOM      2  C9   11 d         -12.987 207.669 113.430  0.00  0.00     0.005 A 
ATOM      3  C10  11 d         -14.083 206.939 112.874  0.00  0.00    -0.015 A 
ATOM      4  C11  11 d         -13.856 206.058 111.778  0.00  0.00    -0.025 A 
ATOM      5  C12  11 d         -12.577 205.950 111.220  0.00  0.00     0.015 A 
ATOM      6  C13  11 d         -11.516 206.696 111.734  0.00  0.00     0.039 A 
ATOM      7  C14  11 d         -14.913 205.296 111.241  0.00  0.00     0.012 A 
ATOM      8  C15  11 d         -16.204 205.410 111.768  0.00  0.00     0.001 A 
ATOM      9  C16  11 d         -16.453 206.293 112.822  0.00  0.00     0.001 A 
ATOM     10  C17  11 d         -15.410 207.055 113.365  0.00  0.00     0.013 A 
ENDROOT
BRANCH   1  11
ATOM     11  O4   11 d         -10.631 208.329 113.423  0.00  0.00    -0.274 OA
BRANCH  11  12
ATOM     12  C1   11 d          -9.659 208.878 112.536  0.00  0.00     0.298 C 
ATOM     13  O3   11 d          -9.993 209.219 111.371  0.00  0.00    -0.259 OA
BRANCH  12  14
ATOM     14  C2   11 d          -8.247 209.011 112.987  0.00  0.00     0.040 A 
ATOM     15  C3   11 d          -7.918 209.726 114.155  0.00  0.00     0.020 A 
ATOM     16  C4   11 d          -6.582 209.847 114.565  0.00  0.00     0.037 A 
ATOM     17  C5   11 d          -5.532 209.265 113.813  0.00  0.00     0.102 A 
ATOM     18  C6   11 d          -5.873 208.548 112.643  0.00  0.00     0.037 A 
ATOM     19  C7   11 d          -7.210 208.419 112.239  0.00  0.00     0.020 A 
BRANCH  17  20
ATOM     20  N1   11 d          -4.198 209.385 114.212  0.00  0.00    -0.116 N 
ATOM     21  O1   11 d          -3.927 209.473 115.321  0.00  0.00    -0.532 OA
ATOM     22  O2   11 d          -3.284 209.575 113.361  0.00  0.00    -0.532 OA
ENDBRANCH  17  20
ENDBRANCH  12  14
ENDBRANCH  11  12
ENDBRANCH   1  11
BRANCH   2  23
ATOM     23  C18  11 d         -13.176 208.570 114.646  0.00  0.00     0.165 C 
BRANCH  23  24
ATOM     24  N2   11 d         -12.150 208.309 115.700  0.00  0.00    -0.352 N 
ATOM     25  C19  11 d         -12.494 207.654 116.916  0.00  0.00     0.251 C 
ATOM     26  O5   11 d         -13.720 207.334 117.131  0.00  0.00    -0.268 OA
ATOM     27  H13  11 d         -11.136 208.610 115.518  0.00  0.00     0.163 HD
BRANCH  25  28
ATOM     28  C20  11 d         -11.468 207.316 117.941  0.00  0.00     0.032 A 
ATOM     29  C21  11 d         -11.610 206.146 118.718  0.00  0.00     0.017 A 
ATOM     30  C22  11 d         -10.638 205.799 119.669  0.00  0.00     0.001 A 
ATOM     31  C23  11 d          -9.509 206.610 119.846  0.00  0.00     0.000 A 
ATOM     32  C24  11 d          -9.350 207.768 119.073  0.00  0.00     0.001 A 
ATOM     33  C25  11 d         -10.324 208.121 118.127  0.00  0.00     0.017 A 
ENDBRANCH  25  28
ENDBRANCH  23  24
ENDBRANCH   2  23
TORSDOF 7
ENDMDL
MODEL 2
REMARK VINA RESULT:     -10.1      2.520      3.279
REMARK  7 active torsions:
REMARK  status: ('A' for Active; 'I' for Inactive)
REMARK    1  A    between atoms: C1_1  and  C2_2 
REMARK    2  A    between atoms: C1_1  and  O4_12 
REMARK    3  A    between atoms: C5_5  and  N1_6 
REMARK    4  A    between atoms: O4_12  and  C8_13 
REMARK    5  A    between atoms: C9_14  and  C18_23 
REMARK    6  A    between atoms: C18_23  and  N2_24 
REMARK       I    between atoms: N2_24  and  C19_25 
REMARK    7  A    between atoms: C19_25  and  C20_26 
ROOT
ATOM      1  C8   11 d         -11.827 207.090 113.859  0.00  0.00     0.088 A 
ATOM      2  C9   11 d         -13.236 207.188 114.031  0.00  0.00     0.005 A 
ATOM      3  C10  11 d         -14.103 206.960 112.918  0.00  0.00    -0.015 A 
ATOM      4  C11  11 d         -13.548 206.582 111.662  0.00  0.00    -0.025 A 
ATOM      5  C12  11 d         -12.160 206.486 111.510  0.00  0.00     0.015 A 
ATOM      6  C13  11 d         -11.312 206.754 112.585  0.00  0.00     0.039 A 
ATOM      7  C14  11 d         -14.386 206.310 110.562  0.00  0.00     0.012 A 
ATOM      8  C15  11 d         -15.774 206.425 110.685  0.00  0.00     0.001 A 
ATOM      9  C16  11 d         -16.336 206.825 111.901  0.00  0.00     0.001 A 
ATOM     10  C17  11 d         -15.514 207.098 113.002  0.00  0.00     0.013 A 
ENDROOT
BRANCH   1  11
ATOM     11  O4   11 d         -10.997 207.362 115.000  0.00  0.00    -0.274 OA
BRANCH  11  12
ATOM     12  C1   11 d         -10.391 208.649 115.086  0.00  0.00     0.298 C 
ATOM     13  O3   11 d         -11.058 209.630 115.508  0.00  0.00    -0.259 OA
BRANCH  12  14
ATOM     14  C2   11 d          -8.982 208.829 114.641  0.00  0.00     0.040 A 
ATOM     15  C3   11 d          -8.662 208.992 113.279  0.00  0.00     0.020 A 
ATOM     16  C4   11 d          -7.329 209.155 112.874  0.00  0.00     0.037 A 
ATOM     17  C5   11 d          -6.273 209.150 113.817  0.00  0.00     0.102 A 
ATOM     18  C6   11 d          -6.605 208.986 115.182  0.00  0.00     0.037 A 
ATOM     19  C7   11 d          -7.939 208.833 115.588  0.00  0.00     0.020 A 
BRANCH  17  20
ATOM     20  N1   11 d          -4.942 209.306 113.422  0.00  0.00    -0.116 N 
ATOM     21  O1   11 d          -4.384 208.451 112.903  0.00  0.00    -0.532 OA
ATOM     22  O2   11 d          -4.277 210.318 113.779  0.00  0.00    -0.532 OA
ENDBRANCH  17  20
ENDBRANCH  12  14
ENDBRANCH  11  12
ENDBRANCH   1  11
BRANCH   2  23
ATOM     23  C18  11 d         -13.796 207.528 115.409  0.00  0.00     0.165 C 
BRANCH  23  24
ATOM     24  N2   11 d         -14.527 206.374 116.015  0.00  0.00    -0.352 N 
ATOM     25  C19  11 d         -13.934 205.585 117.041  0.00  0.00     0.251 C 
ATOM     26  O5   11 d         -12.729 205.837 117.409  0.00  0.00    -0.268 OA
ATOM     27  H13  11 d         -15.522 206.158 115.675  0.00  0.00     0.163 HD
BRANCH  25  28
ATOM     28  C20  11 d         -14.680 204.483 117.710  0.00  0.00     0.032 A 
ATOM     29  C21  11 d         -14.841 204.494 119.113  0.00  0.00     0.017 A 
ATOM     30  C22  11 d         -15.564 203.477 119.756  0.00  0.00     0.001 A 
ATOM     31  C23  11 d         -16.143 202.446 119.004  0.00  0.00     0.000 A 
ATOM     32  C24  11 d         -16.000 202.429 117.610  0.00  0.00     0.001 A 
ATOM     33  C25  11 d         -15.272 203.441 116.965  0.00  0.00     0.017 A 
ENDBRANCH  25  28
ENDBRANCH  23  24
ENDBRANCH   2  23
TORSDOF 7
ENDMDL
MODEL 3
REMARK VINA RESULT:      -9.9      2.543      7.400
REMARK  7 active torsions:
REMARK  status: ('A' for Active; 'I' for Inactive)
REMARK    1  A    between atoms: C1_1  and  C2_2 
REMARK    2  A    between atoms: C1_1  and  O4_12 
REMARK    3  A    between atoms: C5_5  and  N1_6 
REMARK    4  A    between atoms: O4_12  and  C8_13 
REMARK    5  A    between atoms: C9_14  and  C18_23 
REMARK    6  A    between atoms: C18_23  and  N2_24 
REMARK       I    between atoms: N2_24  and  C19_25 
REMARK    7  A    between atoms: C19_25  and  C20_26 
ROOT
ATOM      1  C8   11 d          -8.677 208.645 113.021  0.00  0.00     0.088 A 
ATOM      2  C9   11 d          -7.939 208.726 114.236  0.00  0.00     0.005 A 
ATOM      3  C10  11 d          -6.518 208.578 114.212  0.00  0.00    -0.015 A 
ATOM      4  C11  11 d          -5.851 208.404 112.966  0.00  0.00    -0.025 A 
ATOM      5  C12  11 d          -6.590 208.329 111.780  0.00  0.00     0.015 A 
ATOM      6  C13  11 d          -7.982 208.428 111.808  0.00  0.00     0.039 A 
ATOM      7  C14  11 d          -4.446 208.298 112.914  0.00  0.00     0.012 A 
ATOM      8  C15  11 d          -3.691 208.345 114.091  0.00  0.00     0.001 A 
ATOM      9  C16  11 d          -4.330 208.482 115.326  0.00  0.00     0.001 A 
ATOM     10  C17  11 d          -5.726 208.589 115.390  0.00  0.00     0.013 A 
ENDROOT
BRANCH   1  11
ATOM     11  O4   11 d         -10.107 208.767 113.101  0.00  0.00    -0.274 OA
BRANCH  11  12
ATOM     12  C1   11 d         -10.889 207.991 112.196  0.00  0.00     0.298 C 
ATOM     13  O3   11 d         -10.487 207.807 111.018  0.00  0.00    -0.259 OA
BRANCH  12  14
ATOM     14  C2   11 d         -12.194 207.435 112.645  0.00  0.00     0.040 A 
ATOM     15  C3   11 d         -12.782 206.334 111.992  0.00  0.00     0.020 A 
ATOM     16  C4   11 d         -14.015 205.823 112.424  0.00  0.00     0.037 A 
ATOM     17  C5   11 d         -14.704 206.404 113.516  0.00  0.00     0.102 A 
ATOM     18  C6   11 d         -14.105 207.508 114.166  0.00  0.00     0.037 A 
ATOM     19  C7   11 d         -12.867 208.012 113.740  0.00  0.00     0.020 A 
BRANCH  17  20
ATOM     20  N1   11 d         -15.936 205.905 113.949  0.00  0.00    -0.116 N 
ATOM     21  O1   11 d         -16.021 205.354 114.949  0.00  0.00    -0.532 OA
ATOM     22  O2   11 d         -16.936 205.895 113.178  0.00  0.00    -0.532 OA
ENDBRANCH  17  20
ENDBRANCH  12  14
ENDBRANCH  11  12
ENDBRANCH   1  11
BRANCH   2  23
ATOM     23  C18  11 d          -8.683 208.982 115.542  0.00  0.00     0.165 C 
BRANCH  23  24
ATOM     24  N2   11 d          -9.758 207.971 115.781  0.00  0.00    -0.352 N 
ATOM     25  C19  11 d         -10.566 208.020 116.952  0.00  0.00     0.251 C 
ATOM     26  O5   11 d         -10.328 208.915 117.842  0.00  0.00    -0.268 OA
ATOM     27  H13  11 d          -9.924 207.211 115.041  0.00  0.00     0.163 HD
BRANCH  25  28
ATOM     28  C20  11 d         -11.692 207.068 117.165  0.00  0.00     0.032 A 
ATOM     29  C21  11 d         -12.744 207.410 118.043  0.00  0.00     0.017 A 
ATOM     30  C22  11 d         -13.825 206.536 118.235  0.00  0.00     0.001 A 
ATOM     31  C23  11 d         -13.873 205.318 117.543  0.00  0.00     0.000 A 
ATOM     32  C24  11 d         -12.842 204.971 116.660  0.00  0.00     0.001 A 
ATOM     33  C25  11 d         -11.756 205.840 116.472  0.00  0.00     0.017 A 
ENDBRANCH  25  28
ENDBRANCH  23  24
ENDBRANCH   2  23
TORSDOF 7
ENDMDL
MODEL 4
REMARK VINA RESULT:      -9.7      3.448      7.650
REMARK  7 active torsions:
REMARK  status: ('A' for Active; 'I' for Inactive)
REMARK    1  A    between atoms: C1_1  and  C2_2 
REMARK    2  A    between atoms: C1_1  and  O4_12 
REMARK    3  A    between atoms: C5_5  and  N1_6 
REMARK    4  A    between atoms: O4_12  and  C8_13 
REMARK    5  A    between atoms: C9_14  and  C18_23 
REMARK    6  A    between atoms: C18_23  and  N2_24 
REMARK       I    between atoms: N2_24  and  C19_25 
REMARK    7  A    between atoms: C19_25  and  C20_26 
ROOT
ATOM      1  C8   11 d         -12.786 206.885 115.029  0.00  0.00     0.088 A 
ATOM      2  C9   11 d         -11.712 207.714 114.598  0.00  0.00     0.005 A 
ATOM      3  C10  11 d         -11.343 207.734 113.217  0.00  0.00    -0.015 A 
ATOM      4  C11  11 d         -12.089 206.964 112.280  0.00  0.00    -0.025 A 
ATOM      5  C12  11 d         -13.145 206.156 112.719  0.00  0.00     0.015 A 
ATOM      6  C13  11 d         -13.476 206.102 114.073  0.00  0.00     0.039 A 
ATOM      7  C14  11 d         -11.770 207.001 110.908  0.00  0.00     0.012 A 
ATOM      8  C15  11 d         -10.703 207.782 110.451  0.00  0.00     0.001 A 
ATOM      9  C16  11 d          -9.939 208.519 111.360  0.00  0.00     0.001 A 
ATOM     10  C17  11 d         -10.246 208.491 112.727  0.00  0.00     0.013 A 
ENDROOT
BRANCH   1  11
ATOM     11  O4   11 d         -13.097 206.875 116.432  0.00  0.00    -0.274 OA
BRANCH  11  12
ATOM     12  C1   11 d         -12.758 205.708 117.176  0.00  0.00     0.298 C 
ATOM     13  O3   11 d         -11.587 205.247 117.123  0.00  0.00    -0.259 OA
BRANCH  12  14
ATOM     14  C2   11 d         -13.803 205.023 117.984  0.00  0.00     0.040 A 
ATOM     15  C3   11 d         -14.543 203.945 117.459  0.00  0.00     0.020 A 
ATOM     16  C4   11 d         -15.529 203.312 118.230  0.00  0.00     0.037 A 
ATOM     17  C5   11 d         -15.813 203.744 119.549  0.00  0.00     0.102 A 
ATOM     18  C6   11 d         -15.064 204.826 120.068  0.00  0.00     0.037 A 
ATOM     19  C7   11 d         -14.072 205.452 119.299  0.00  0.00     0.020 A 
BRANCH  17  20
ATOM     20  N1   11 d         -16.797 203.123 120.322  0.00  0.00    -0.116 N 
ATOM     21  O1   11 d         -16.710 202.014 120.594  0.00  0.00    -0.532 OA
ATOM     22  O2   11 d         -17.879 203.716 120.590  0.00  0.00    -0.532 OA
ENDBRANCH  17  20
ENDBRANCH  12  14
ENDBRANCH  11  12
ENDBRANCH   1  11
BRANCH   2  23
ATOM     23  C18  11 d         -10.981 208.577 115.622  0.00  0.00     0.165 C 
BRANCH  23  24
ATOM     24  N2   11 d          -9.980 207.789 116.403  0.00  0.00    -0.352 N 
ATOM     25  C19  11 d          -9.868 207.937 117.814  0.00  0.00     0.251 C 
ATOM     26  O5   11 d         -10.602 208.804 118.415  0.00  0.00    -0.268 OA
ATOM     27  H13  11 d          -9.353 207.091 115.882  0.00  0.00     0.163 HD
BRANCH  25  28
ATOM     28  C20  11 d          -8.931 207.102 118.616  0.00  0.00     0.032 A 
ATOM     29  C21  11 d          -7.585 206.970 118.212  0.00  0.00     0.017 A 
ATOM     30  C22  11 d          -6.683 206.209 118.971  0.00  0.00     0.001 A 
ATOM     31  C23  11 d          -7.112 205.581 120.148  0.00  0.00     0.000 A 
ATOM     32  C24  11 d          -8.443 205.713 120.568  0.00  0.00     0.001 A 
ATOM     33  C25  11 d          -9.349 206.468 119.806  0.00  0.00     0.017 A 
ENDBRANCH  25  28
ENDBRANCH  23  24
ENDBRANCH   2  23
TORSDOF 7
ENDMDL
MODEL 5
REMARK VINA RESULT:      -9.6      3.182      7.741
REMARK  7 active torsions:
REMARK  status: ('A' for Active; 'I' for Inactive)
REMARK    1  A    between atoms: C1_1  and  C2_2 
REMARK    2  A    between atoms: C1_1  and  O4_12 
REMARK    3  A    between atoms: C5_5  and  N1_6 
REMARK    4  A    between atoms: O4_12  and  C8_13 
REMARK    5  A    between atoms: C9_14  and  C18_23 
REMARK    6  A    between atoms: C18_23  and  N2_24 
REMARK       I    between atoms: N2_24  and  C19_25 
REMARK    7  A    between atoms: C19_25  and  C20_26 
ROOT
ATOM      1  C8   11 d         -12.577 207.308 115.085  0.00  0.00     0.088 A 
ATOM      2  C9   11 d         -11.499 208.004 114.468  0.00  0.00     0.005 A 
ATOM      3  C10  11 d         -11.265 207.848 113.067  0.00  0.00    -0.015 A 
ATOM      4  C11  11 d         -12.147 207.040 112.294  0.00  0.00    -0.025 A 
ATOM      5  C12  11 d         -13.204 206.365 112.915  0.00  0.00     0.015 A 
ATOM      6  C13  11 d         -13.405 206.481 114.291  0.00  0.00     0.039 A 
ATOM      7  C14  11 d         -11.961 206.906 110.903  0.00  0.00     0.012 A 
ATOM      8  C15  11 d         -10.896 207.551 110.267  0.00  0.00     0.001 A 
ATOM      9  C16  11 d         -10.001 208.323 111.014  0.00  0.00     0.001 A 
ATOM     10  C17  11 d         -10.175 208.464 112.397  0.00  0.00     0.013 A 
ENDROOT
BRANCH   1  11
ATOM     11  O4   11 d         -12.750 207.472 116.502  0.00  0.00    -0.274 OA
BRANCH  11  12
ATOM     12  C1   11 d         -12.342 206.398 117.347  0.00  0.00     0.298 C 
ATOM     13  O3   11 d         -11.122 206.238 117.614  0.00  0.00    -0.259 OA
BRANCH  12  14
ATOM     14  C2   11 d         -13.362 205.454 117.877  0.00  0.00     0.040 A 
ATOM     15  C3   11 d         -13.880 204.414 117.079  0.00  0.00     0.020 A 
ATOM     16  C4   11 d         -14.845 203.534 117.591  0.00  0.00     0.037 A 
ATOM     17  C5   11 d         -15.331 203.673 118.914  0.00  0.00     0.102 A 
ATOM     18  C6   11 d         -14.805 204.719 119.707  0.00  0.00     0.037 A 
ATOM     19  C7   11 d         -13.832 205.593 119.198  0.00  0.00     0.020 A 
BRANCH  17  20
ATOM     20  N1   11 d         -16.296 202.804 119.430  0.00  0.00    -0.116 N 
ATOM     21  O1   11 d         -17.155 203.204 120.074  0.00  0.00    -0.532 OA
ATOM     22  O2   11 d         -16.149 201.553 119.348  0.00  0.00    -0.532 OA
ENDBRANCH  17  20
ENDBRANCH  12  14
ENDBRANCH  11  12
ENDBRANCH   1  11
BRANCH   2  23
ATOM     23  C18  11 d         -10.618 208.915 115.317  0.00  0.00     0.165 C 
BRANCH  23  24
ATOM     24  N2   11 d          -9.315 208.269 115.662  0.00  0.00    -0.352 N 
ATOM     25  C19  11 d          -8.077 208.886 115.328  0.00  0.00     0.251 C 
ATOM     26  O5   11 d          -8.083 209.988 114.668  0.00  0.00    -0.268 OA
ATOM     27  H13  11 d          -9.327 207.332 116.187  0.00  0.00     0.163 HD
BRANCH  25  28
ATOM     28  C20  11 d          -6.772 208.294 115.736  0.00  0.00     0.032 A 
ATOM     29  C21  11 d          -6.591 207.837 117.059  0.00  0.00     0.017 A 
ATOM     30  C22  11 d          -5.378 207.252 117.452  0.00  0.00     0.001 A 
ATOM     31  C23  11 d          -4.336 207.107 116.525  0.00  0.00     0.000 A 
ATOM     32  C24  11 d          -4.507 207.546 115.205  0.00  0.00     0.001 A 
ATOM     33  C25  11 d          -5.717 208.137 114.811  0.00  0.00     0.017 A 
ENDBRANCH  25  28
ENDBRANCH  23  24
ENDBRANCH   2  23
TORSDOF 7
ENDMDL
MODEL 6
REMARK VINA RESULT:      -9.5      2.104      3.386
REMARK  7 active torsions:
REMARK  status: ('A' for Active; 'I' for Inactive)
REMARK    1  A    between atoms: C1_1  and  C2_2 
REMARK    2  A    between atoms: C1_1  and  O4_12 
REMARK    3  A    between atoms: C5_5  and  N1_6 
REMARK    4  A    between atoms: O4_12  and  C8_13 
REMARK    5  A    between atoms: C9_14  and  C18_23 
REMARK    6  A    between atoms: C18_23  and  N2_24 
REMARK       I    between atoms: N2_24  and  C19_25 
REMARK    7  A    between atoms: C19_25  and  C20_26 
ROOT
ATOM      1  C8   11 d          -9.035 209.269 113.780  0.00  0.00     0.088 A 
ATOM      2  C9   11 d         -10.189 208.687 114.378  0.00  0.00     0.005 A 
ATOM      3  C10  11 d         -11.093 207.922 113.576  0.00  0.00    -0.015 A 
ATOM      4  C11  11 d         -10.799 207.706 112.200  0.00  0.00    -0.025 A 
ATOM      5  C12  11 d          -9.658 208.281 111.628  0.00  0.00     0.015 A 
ATOM      6  C13  11 d          -8.800 209.066 112.400  0.00  0.00     0.039 A 
ATOM      7  C14  11 d         -11.652 206.919 111.401  0.00  0.00     0.012 A 
ATOM      8  C15  11 d         -12.811 206.356 111.947  0.00  0.00     0.001 A 
ATOM      9  C16  11 d         -13.133 206.584 113.288  0.00  0.00     0.001 A 
ATOM     10  C17  11 d         -12.292 207.364 114.092  0.00  0.00     0.013 A 
ENDROOT
BRANCH   1  11
ATOM     11  O4   11 d          -8.176 210.056 114.620  0.00  0.00    -0.274 OA
BRANCH  11  12
ATOM     12  C1   11 d          -7.006 209.432 115.141  0.00  0.00     0.298 C 
ATOM     13  O3   11 d          -6.990 209.020 116.330  0.00  0.00    -0.259 OA
BRANCH  12  14
ATOM     14  C2   11 d          -5.798 209.304 114.281  0.00  0.00     0.040 A 
ATOM     15  C3   11 d          -5.519 208.110 113.587  0.00  0.00     0.020 A 
ATOM     16  C4   11 d          -4.374 208.003 112.784  0.00  0.00     0.037 A 
ATOM     17  C5   11 d          -3.466 209.083 112.657  0.00  0.00     0.102 A 
ATOM     18  C6   11 d          -3.756 210.277 113.357  0.00  0.00     0.037 A 
ATOM     19  C7   11 d          -4.906 210.387 114.153  0.00  0.00     0.020 A 
BRANCH  17  20
ATOM     20  N1   11 d          -2.321 208.982 111.863  0.00  0.00    -0.116 N 
ATOM     21  O1   11 d          -1.341 209.477 112.190  0.00  0.00    -0.532 OA
ATOM     22  O2   11 d          -2.382 208.500 110.699  0.00  0.00    -0.532 OA
ENDBRANCH  17  20
ENDBRANCH  12  14
ENDBRANCH  11  12
ENDBRANCH   1  11
BRANCH   2  23
ATOM     23  C18  11 d         -10.434 208.885 115.870  0.00  0.00     0.165 C 
BRANCH  23  24
ATOM     24  N2   11 d          -9.572 207.991 116.701  0.00  0.00    -0.352 N 
ATOM     25  C19  11 d          -9.762 207.886 118.108  0.00  0.00     0.251 C 
ATOM     26  O5   11 d         -10.652 208.617 118.677  0.00  0.00    -0.268 OA
ATOM     27  H13  11 d          -8.812 207.409 116.214  0.00  0.00     0.163 HD
BRANCH  25  28
ATOM     28  C20  11 d          -8.964 206.940 118.937  0.00  0.00     0.032 A 
ATOM     29  C21  11 d          -7.601 206.724 118.641  0.00  0.00     0.017 A 
ATOM     30  C22  11 d          -6.829 205.856 119.428  0.00  0.00     0.001 A 
ATOM     31  C23  11 d          -7.406 205.205 120.527  0.00  0.00     0.000 A 
ATOM     32  C24  11 d          -8.756 205.419 120.839  0.00  0.00     0.001 A 
ATOM     33  C25  11 d          -9.532 206.281 120.049  0.00  0.00     0.017 A 
ENDBRANCH  25  28
ENDBRANCH  23  24
ENDBRANCH   2  23
TORSDOF 7
ENDMDL
MODEL 7
REMARK VINA RESULT:      -9.4      2.559      6.244
REMARK  7 active torsions:
REMARK  status: ('A' for Active; 'I' for Inactive)
REMARK    1  A    between atoms: C1_1  and  C2_2 
REMARK    2  A    between atoms: C1_1  and  O4_12 
REMARK    3  A    between atoms: C5_5  and  N1_6 
REMARK    4  A    between atoms: O4_12  and  C8_13 
REMARK    5  A    between atoms: C9_14  and  C18_23 
REMARK    6  A    between atoms: C18_23  and  N2_24 
REMARK       I    between atoms: N2_24  and  C19_25 
REMARK    7  A    between atoms: C19_25  and  C20_26 
ROOT
ATOM      1  C8   11 d         -13.054 206.435 116.671  0.00  0.00     0.088 A 
ATOM      2  C9   11 d         -14.067 205.509 117.051  0.00  0.00     0.005 A 
ATOM      3  C10  11 d         -14.194 205.122 118.421  0.00  0.00    -0.015 A 
ATOM      4  C11  11 d         -13.341 205.709 119.399  0.00  0.00    -0.025 A 
ATOM      5  C12  11 d         -12.353 206.621 119.009  0.00  0.00     0.015 A 
ATOM      6  C13  11 d         -12.199 206.964 117.666  0.00  0.00     0.039 A 
ATOM      7  C14  11 d         -13.477 205.375 120.761  0.00  0.00     0.012 A 
ATOM      8  C15  11 d         -14.442 204.447 121.168  0.00  0.00     0.001 A 
ATOM      9  C16  11 d         -15.267 203.836 120.219  0.00  0.00     0.001 A 
ATOM     10  C17  11 d         -15.142 204.161 118.862  0.00  0.00     0.013 A 
ENDROOT
BRANCH   1  11
ATOM     11  O4   11 d         -12.945 206.766 115.277  0.00  0.00    -0.274 OA
BRANCH  11  12
ATOM     12  C1   11 d         -12.510 208.082 114.942  0.00  0.00     0.298 C 
ATOM     13  O3   11 d         -13.305 209.052 115.046  0.00  0.00    -0.259 OA
BRANCH  12  14
ATOM     14  C2   11 d         -11.126 208.290 114.436  0.00  0.00     0.040 A 
ATOM     15  C3   11 d         -10.159 208.959 115.212  0.00  0.00     0.020 A 
ATOM     16  C4   11 d          -8.859 209.153 114.721  0.00  0.00     0.037 A 
ATOM     17  C5   11 d          -8.489 208.693 113.433  0.00  0.00     0.102 A 
ATOM     18  C6   11 d          -9.467 208.022 112.663  0.00  0.00     0.037 A 
ATOM     19  C7   11 d         -10.764 207.820 113.159  0.00  0.00     0.020 A 
BRANCH  17  20
ATOM     20  N1   11 d          -7.198 208.886 112.934  0.00  0.00    -0.116 N 
ATOM     21  O1   11 d          -6.462 209.577 113.475  0.00  0.00    -0.532 OA
ATOM     22  O2   11 d          -6.874 208.449 111.795  0.00  0.00    -0.532 OA
ENDBRANCH  17  20
ENDBRANCH  12  14
ENDBRANCH  11  12
ENDBRANCH   1  11
BRANCH   2  23
ATOM     23  C18  11 d         -15.006 204.954 115.985  0.00  0.00     0.165 C 
BRANCH  23  24
ATOM     24  N2   11 d         -14.574 205.335 114.606  0.00  0.00    -0.352 N 
ATOM     25  C19  11 d         -15.521 205.744 113.625  0.00  0.00     0.251 C 
ATOM     26  O5   11 d         -16.772 205.729 113.916  0.00  0.00    -0.268 OA
ATOM     27  H13  11 d         -13.527 205.313 114.369  0.00  0.00     0.163 HD
BRANCH  25  28
ATOM     28  C20  11 d         -15.098 206.202 112.273  0.00  0.00     0.032 A 
ATOM     29  C21  11 d         -16.066 206.655 111.350  0.00  0.00     0.017 A 
ATOM     30  C22  11 d         -15.682 207.116 110.081  0.00  0.00     0.001 A 
ATOM     31  C23  11 d         -14.327 207.140 109.725  0.00  0.00     0.000 A 
ATOM     32  C24  11 d         -13.355 206.704 110.635  0.00  0.00     0.001 A 
ATOM     33  C25  11 d         -13.737 206.236 111.902  0.00  0.00     0.017 A 
ENDBRANCH  25  28
ENDBRANCH  23  24
ENDBRANCH   2  23
TORSDOF 7
ENDMDL
MODEL 8
REMARK VINA RESULT:      -9.4      2.489      3.477
REMARK  7 active torsions:
REMARK  status: ('A' for Active; 'I' for Inactive)
REMARK    1  A    between atoms: C1_1  and  C2_2 
REMARK    2  A    between atoms: C1_1  and  O4_12 
REMARK    3  A    between atoms: C5_5  and  N1_6 
REMARK    4  A    between atoms: O4_12  and  C8_13 
REMARK    5  A    between atoms: C9_14  and  C18_23 
REMARK    6  A    between atoms: C18_23  and  N2_24 
REMARK       I    between atoms: N2_24  and  C19_25 
REMARK    7  A    between atoms: C19_25  and  C20_26 
ROOT
ATOM      1  C8   11 d          -9.361 208.929 114.092  0.00  0.00     0.088 A 
ATOM      2  C9   11 d         -10.644 208.374 114.359  0.00  0.00     0.005 A 
ATOM      3  C10  11 d         -11.391 207.775 113.297  0.00  0.00    -0.015 A 
ATOM      4  C11  11 d         -10.819 207.694 111.995  0.00  0.00    -0.025 A 
ATOM      5  C12  11 d          -9.554 208.242 111.751  0.00  0.00     0.015 A 
ATOM      6  C13  11 d          -8.845 208.866 112.777  0.00  0.00     0.039 A 
ATOM      7  C14  11 d         -11.519 207.070 110.943  0.00  0.00     0.012 A 
ATOM      8  C15  11 d         -12.795 206.539 111.161  0.00  0.00     0.001 A 
ATOM      9  C16  11 d         -13.386 206.638 112.424  0.00  0.00     0.001 A 
ATOM     10  C17  11 d         -12.700 207.255 113.478  0.00  0.00     0.013 A 
ENDROOT
BRANCH   1  11
ATOM     11  O4   11 d          -8.664 209.549 115.186  0.00  0.00    -0.274 OA
BRANCH  11  12
ATOM     12  C1   11 d          -7.243 209.628 115.105  0.00  0.00     0.298 C 
ATOM     13  O3   11 d          -6.699 210.630 114.571  0.00  0.00    -0.259 OA
BRANCH  12  14
ATOM     14  C2   11 d          -6.415 208.506 115.624  0.00  0.00     0.040 A 
ATOM     15  C3   11 d          -6.598 208.007 116.929  0.00  0.00     0.020 A 
ATOM     16  C4   11 d          -5.806 206.952 117.407  0.00  0.00     0.037 A 
ATOM     17  C5   11 d          -4.800 206.370 116.598  0.00  0.00     0.102 A 
ATOM     18  C6   11 d          -4.625 206.877 115.290  0.00  0.00     0.037 A 
ATOM     19  C7   11 d          -5.424 207.926 114.809  0.00  0.00     0.020 A 
BRANCH  17  20
ATOM     20  N1   11 d          -4.004 205.322 117.068  0.00  0.00    -0.116 N 
ATOM     21  O1   11 d          -2.914 205.222 116.730  0.00  0.00    -0.532 OA
ATOM     22  O2   11 d          -4.509 204.373 117.730  0.00  0.00    -0.532 OA
ENDBRANCH  17  20
ENDBRANCH  12  14
ENDBRANCH  11  12
ENDBRANCH   1  11
BRANCH   2  23
ATOM     23  C18  11 d         -11.194 208.419 115.781  0.00  0.00     0.165 C 
BRANCH  23  24
ATOM     24  N2   11 d         -10.127 208.189 116.801  0.00  0.00    -0.352 N 
ATOM     25  C19  11 d         -10.446 208.046 118.180  0.00  0.00     0.251 C 
ATOM     26  O5   11 d         -11.667 208.174 118.558  0.00  0.00    -0.268 OA
ATOM     27  H13  11 d          -9.107 208.115 116.472  0.00  0.00     0.163 HD
BRANCH  25  28
ATOM     28  C20  11 d          -9.403 207.737 119.197  0.00  0.00     0.032 A 
ATOM     29  C21  11 d          -9.083 206.394 119.490  0.00  0.00     0.017 A 
ATOM     30  C22  11 d          -8.083 206.086 120.426  0.00  0.00     0.001 A 
ATOM     31  C23  11 d          -7.385 207.116 121.071  0.00  0.00     0.000 A 
ATOM     32  C24  11 d          -7.684 208.454 120.781  0.00  0.00     0.001 A 
ATOM     33  C25  11 d          -8.688 208.764 119.851  0.00  0.00     0.017 A 
ENDBRANCH  25  28
ENDBRANCH  23  24
ENDBRANCH   2  23
TORSDOF 7
ENDMDL
MODEL 9
REMARK VINA RESULT:      -9.3      2.532      8.464
REMARK  7 active torsions:
REMARK  status: ('A' for Active; 'I' for Inactive)
REMARK    1  A    between atoms: C1_1  and  C2_2 
REMARK    2  A    between atoms: C1_1  and  O4_12 
REMARK    3  A    between atoms: C5_5  and  N1_6 
REMARK    4  A    between atoms: O4_12  and  C8_13 
REMARK    5  A    between atoms: C9_14  and  C18_23 
REMARK    6  A    between atoms: C18_23  and  N2_24 
REMARK       I    between atoms: N2_24  and  C19_25 
REMARK    7  A    between atoms: C19_25  and  C20_26 
ROOT
ATOM      1  C8   11 d          -7.369 207.924 117.158  0.00  0.00     0.088 A 
ATOM      2  C9   11 d          -6.901 208.349 115.883  0.00  0.00     0.005 A 
ATOM      3  C10  11 d          -5.686 207.807 115.358  0.00  0.00    -0.015 A 
ATOM      4  C11  11 d          -4.988 206.808 116.095  0.00  0.00    -0.025 A 
ATOM      5  C12  11 d          -5.464 206.399 117.346  0.00  0.00     0.015 A 
ATOM      6  C13  11 d          -6.624 206.961 117.878  0.00  0.00     0.039 A 
ATOM      7  C14  11 d          -3.812 206.229 115.577  0.00  0.00     0.012 A 
ATOM      8  C15  11 d          -3.306 206.642 114.340  0.00  0.00     0.001 A 
ATOM      9  C16  11 d          -3.960 207.644 113.618  0.00  0.00     0.001 A 
ATOM     10  C17  11 d          -5.130 208.227 114.122  0.00  0.00     0.013 A 
ENDROOT
BRANCH   1  11
ATOM     11  O4   11 d          -8.576 208.523 117.657  0.00  0.00    -0.274 OA
BRANCH  11  12
ATOM     12  C1   11 d          -9.506 207.678 118.330  0.00  0.00     0.298 C 
ATOM     13  O3   11 d          -9.249 207.260 119.490  0.00  0.00    -0.259 OA
BRANCH  12  14
ATOM     14  C2   11 d         -10.758 207.268 117.640  0.00  0.00     0.040 A 
ATOM     15  C3   11 d         -11.377 206.033 117.922  0.00  0.00     0.020 A 
ATOM     16  C4   11 d         -12.555 205.658 117.259  0.00  0.00     0.037 A 
ATOM     17  C5   11 d         -13.146 206.500 116.286  0.00  0.00     0.102 A 
ATOM     18  C6   11 d         -12.519 207.737 116.011  0.00  0.00     0.037 A 
ATOM     19  C7   11 d         -11.345 208.117 116.681  0.00  0.00     0.020 A 
BRANCH  17  20
ATOM     20  N1   11 d         -14.317 206.131 115.618  0.00  0.00    -0.116 N 
ATOM     21  O1   11 d         -14.784 205.100 115.788  0.00  0.00    -0.532 OA
ATOM     22  O2   11 d         -14.784 206.849 114.691  0.00  0.00    -0.532 OA
ENDBRANCH  17  20
ENDBRANCH  12  14
ENDBRANCH  11  12
ENDBRANCH   1  11
BRANCH   2  23
ATOM     23  C18  11 d          -7.713 209.371 115.094  0.00  0.00     0.165 C 
BRANCH  23  24
ATOM     24  N2   11 d          -8.859 208.738 114.373  0.00  0.00    -0.352 N 
ATOM     25  C19  11 d          -8.930 208.749 112.952  0.00  0.00     0.251 C 
ATOM     26  O5   11 d          -8.022 209.365 112.283  0.00  0.00    -0.268 OA
ATOM     27  H13  11 d          -9.626 208.254 114.948  0.00  0.00     0.163 HD
BRANCH  25  28
ATOM     28  C20  11 d         -10.024 208.054 112.217  0.00  0.00     0.032 A 
ATOM     29  C21  11 d         -10.940 207.244 112.923  0.00  0.00     0.017 A 
ATOM     30  C22  11 d         -11.992 206.604 112.250  0.00  0.00     0.001 A 
ATOM     31  C23  11 d         -12.147 206.774 110.868  0.00  0.00     0.000 A 
ATOM     32  C24  11 d         -11.251 207.584 110.156  0.00  0.00     0.001 A 
ATOM     33  C25  11 d         -10.194 208.220 110.826  0.00  0.00     0.017 A 
ENDBRANCH  25  28
ENDBRANCH  23  24
ENDBRANCH   2  23
TORSDOF 7
ENDMDL
MODEL 10
REMARK VINA RESULT:      -9.1      3.504      7.656
REMARK  7 active torsions:
REMARK  status: ('A' for Active; 'I' for Inactive)
REMARK    1  A    between atoms: C1_1  and  C2_2 
REMARK    2  A    between atoms: C1_1  and  O4_12 
REMARK    3  A    between atoms: C5_5  and  N1_6 
REMARK    4  A    between atoms: O4_12  and  C8_13 
REMARK    5  A    between atoms: C9_14  and  C18_23 
REMARK    6  A    between atoms: C18_23  and  N2_24 
REMARK       I    between atoms: N2_24  and  C19_25 
REMARK    7  A    between atoms: C19_25  and  C20_26 
ROOT
ATOM      1  C8   11 d         -12.930 207.138 115.530  0.00  0.00     0.088 A 
ATOM      2  C9   11 d         -11.815 207.776 114.916  0.00  0.00     0.005 A 
ATOM      3  C10  11 d         -11.584 207.605 113.516  0.00  0.00    -0.015 A 
ATOM      4  C11  11 d         -12.504 206.842 112.741  0.00  0.00    -0.025 A 
ATOM      5  C12  11 d         -13.597 206.224 113.360  0.00  0.00     0.015 A 
ATOM      6  C13  11 d         -13.797 206.354 114.734  0.00  0.00     0.039 A 
ATOM      7  C14  11 d         -12.320 206.695 111.352  0.00  0.00     0.012 A 
ATOM      8  C15  11 d         -11.220 207.283 110.719  0.00  0.00     0.001 A 
ATOM      9  C16  11 d         -10.289 208.009 111.468  0.00  0.00     0.001 A 
ATOM     10  C17  11 d         -10.461 208.162 112.850  0.00  0.00     0.013 A 
ENDROOT
BRANCH   1  11
ATOM     11  O4   11 d         -13.100 207.314 116.946  0.00  0.00    -0.274 OA
BRANCH  11  12
ATOM     12  C1   11 d         -12.971 206.162 117.776  0.00  0.00     0.298 C 
ATOM     13  O3   11 d         -12.038 205.342 117.572  0.00  0.00    -0.259 OA
BRANCH  12  14
ATOM     14  C2   11 d         -13.966 205.921 118.856  0.00  0.00     0.040 A 
ATOM     15  C3   11 d         -14.507 204.639 119.078  0.00  0.00     0.020 A 
ATOM     16  C4   11 d         -15.447 204.428 120.098  0.00  0.00     0.037 A 
ATOM     17  C5   11 d         -15.884 205.494 120.920  0.00  0.00     0.102 A 
ATOM     18  C6   11 d         -15.335 206.777 120.691  0.00  0.00     0.037 A 
ATOM     19  C7   11 d         -14.387 206.985 119.677  0.00  0.00     0.020 A 
BRANCH  17  20
ATOM     20  N1   11 d         -16.825 205.294 121.935  0.00  0.00    -0.116 N 
ATOM     21  O1   11 d         -17.576 206.116 122.203  0.00  0.00    -0.532 OA
ATOM     22  O2   11 d         -16.757 204.283 122.688  0.00  0.00    -0.532 OA
ENDBRANCH  17  20
ENDBRANCH  12  14
ENDBRANCH  11  12
ENDBRANCH   1  11
BRANCH   2  23
ATOM     23  C18  11 d         -10.891 208.641 115.767  0.00  0.00     0.165 C 
BRANCH  23  24
ATOM     24  N2   11 d          -9.928 207.819 116.560  0.00  0.00    -0.352 N 
ATOM     25  C19  11 d          -9.841 207.948 117.975  0.00  0.00     0.251 C 
ATOM     26  O5   11 d         -10.564 208.828 118.570  0.00  0.00    -0.268 OA
ATOM     27  H13  11 d          -9.309 207.109 116.044  0.00  0.00     0.163 HD
BRANCH  25  28
ATOM     28  C20  11 d          -8.944 207.080 118.787  0.00  0.00     0.032 A 
ATOM     29  C21  11 d          -9.456 206.398 119.912  0.00  0.00     0.017 A 
ATOM     30  C22  11 d          -8.630 205.555 120.672  0.00  0.00     0.001 A 
ATOM     31  C23  11 d          -7.289 205.374 120.309  0.00  0.00     0.000 A 
ATOM     32  C24  11 d          -6.771 206.035 119.187  0.00  0.00     0.001 A 
ATOM     33  C25  11 d          -7.593 206.884 118.430  0.00  0.00     0.017 A 
ENDBRANCH  25  28
ENDBRANCH  23  24
ENDBRANCH   2  23
TORSDOF 7
ENDMDL
