MODEL 1
REMARK VINA RESULT:      -8.7      0.000      0.000
REMARK  1 active torsions:
REMARK  status: ('A' for Active; 'I' for Inactive)
REMARK    1  A    between atoms: C6_6  and  O1_7 
REMARK       I    between atoms: N1_21  and  C19_22 
ROOT
ATOM      1  C1   11 d          -8.907 208.819 114.697  0.00  0.00     0.072 C 
ATOM      2  C2   11 d         -10.056 208.108 114.079  0.00  0.00    -0.000 A 
ATOM      3  C3   11 d         -10.288 208.265 112.687  0.00  0.00    -0.046 A 
ATOM      4  C4   11 d         -11.328 207.536 112.078  0.00  0.00     0.011 A 
ATOM      5  C5   11 d         -12.156 206.703 112.844  0.00  0.00     0.037 A 
ATOM      6  C6   11 d         -11.924 206.546 114.219  0.00  0.00     0.069 A 
ATOM      7  C8   11 d         -10.894 207.269 114.838  0.00  0.00     0.050 A 
ATOM      8  C9   11 d          -9.349 209.088 111.822  0.00  0.00     0.040 C 
ATOM      9  C10  11 d          -7.949 209.257 112.436  0.00  0.00     0.018 C 
ATOM     10  C11  11 d          -8.057 209.751 113.891  0.00  0.00     0.070 C 
ATOM     11  C12  11 d          -6.798 209.866 114.763  0.00  0.00     0.156 C 
ATOM     12  C13  11 d          -5.577 209.158 114.196  0.00  0.00    -0.032 A 
ATOM     13  C14  11 d          -5.332 207.789 114.442  0.00  0.00     0.012 A 
ATOM     14  C15  11 d          -4.160 207.177 113.971  0.00  0.00     0.043 A 
ATOM     15  C16  11 d          -3.209 207.930 113.269  0.00  0.00     0.116 A 
ATOM     16  F1   11 d          -2.072 207.333 112.806  0.00  0.00    -0.206 F 
ATOM     17  C17  11 d          -3.423 209.297 113.047  0.00  0.00     0.043 A 
ATOM     18  C18  11 d          -4.592 209.911 113.520  0.00  0.00     0.012 A 
ATOM     19  N1   11 d          -7.273 209.255 116.036  0.00  0.00    -0.228 N 
ATOM     20  C19  11 d          -6.568 209.297 117.274  0.00  0.00     0.236 C 
ATOM     21  O2   11 d          -5.448 209.916 117.344  0.00  0.00    -0.272 OA
ATOM     22  C20  11 d          -7.137 208.673 118.513  0.00  0.00     0.119 C 
ATOM     23  N2   11 d          -8.502 208.614 115.916  0.00  0.00    -0.172 NA
ENDROOT
BRANCH   6  24
ATOM     24  O1   11 d         -12.810 205.758 115.000  0.00  0.00    -0.356 OA
ATOM     25  C7   11 d         -14.126 205.769 114.391  0.00  0.00     0.210 C 
ENDBRANCH   6  24
TORSDOF 1
ENDMDL
MODEL 2
REMARK VINA RESULT:      -8.0      1.718      2.304
REMARK  1 active torsions:
REMARK  status: ('A' for Active; 'I' for Inactive)
REMARK    1  A    between atoms: C6_6  and  O1_7 
REMARK       I    between atoms: N1_21  and  C19_22 
ROOT
ATOM      1  C1   11 d          -7.138 209.353 114.896  0.00  0.00     0.072 C 
ATOM      2  C2   11 d          -8.417 208.945 114.259  0.00  0.00    -0.000 A 
ATOM      3  C3   11 d          -8.414 208.593 112.884  0.00  0.00    -0.046 A 
ATOM      4  C4   11 d          -9.606 208.133 112.291  0.00  0.00     0.011 A 
ATOM      5  C5   11 d         -10.793 208.070 113.035  0.00  0.00     0.037 A 
ATOM      6  C6   11 d         -10.795 208.417 114.394  0.00  0.00     0.069 A 
ATOM      7  C8   11 d          -9.615 208.880 114.996  0.00  0.00     0.050 A 
ATOM      8  C9   11 d          -7.124 208.563 112.083  0.00  0.00     0.040 C 
ATOM      9  C10  11 d          -5.868 208.424 112.961  0.00  0.00     0.018 C 
ATOM     10  C11  11 d          -5.883 209.472 114.089  0.00  0.00     0.070 C 
ATOM     11  C12  11 d          -4.802 209.447 115.180  0.00  0.00     0.156 C 
ATOM     12  C13  11 d          -3.986 208.165 115.225  0.00  0.00    -0.032 A 
ATOM     13  C14  11 d          -4.416 207.038 115.960  0.00  0.00     0.012 A 
ATOM     14  C15  11 d          -3.609 205.893 116.047  0.00  0.00     0.043 A 
ATOM     15  C16  11 d          -2.356 205.867 115.420  0.00  0.00     0.116 A 
ATOM     16  F1   11 d          -1.574 204.751 115.501  0.00  0.00    -0.206 F 
ATOM     17  C17  11 d          -1.902 206.991 114.716  0.00  0.00     0.043 A 
ATOM     18  C18  11 d          -2.706 208.138 114.630  0.00  0.00     0.012 A 
ATOM     19  N1   11 d          -5.626 209.644 116.406  0.00  0.00    -0.228 N 
ATOM     20  C19  11 d          -5.105 209.920 117.703  0.00  0.00     0.236 C 
ATOM     21  O2   11 d          -3.839 210.037 117.866  0.00  0.00    -0.272 OA
ATOM     22  C20  11 d          -6.014 210.127 118.877  0.00  0.00     0.119 C 
ATOM     23  N2   11 d          -6.994 209.530 116.177  0.00  0.00    -0.172 NA
ENDROOT
BRANCH   6  24
ATOM     24  O1   11 d         -12.015 208.421 115.122  0.00  0.00    -0.356 OA
ATOM     25  C7   11 d         -13.108 208.093 114.227  0.00  0.00     0.210 C 
ENDBRANCH   6  24
TORSDOF 1
ENDMDL
MODEL 3
REMARK VINA RESULT:      -7.8      3.596      6.881
REMARK  1 active torsions:
REMARK  status: ('A' for Active; 'I' for Inactive)
REMARK    1  A    between atoms: C6_6  and  O1_7 
REMARK       I    between atoms: N1_21  and  C19_22 
ROOT
ATOM      1  C1   11 d          -9.211 208.120 117.204  0.00  0.00     0.072 C 
ATOM      2  C2   11 d          -8.857 207.242 118.349  0.00  0.00    -0.000 A 
ATOM      3  C3   11 d          -9.895 206.771 119.195  0.00  0.00    -0.046 A 
ATOM      4  C4   11 d          -9.578 205.878 120.237  0.00  0.00     0.011 A 
ATOM      5  C5   11 d          -8.250 205.495 120.467  0.00  0.00     0.037 A 
ATOM      6  C6   11 d          -7.225 205.958 119.629  0.00  0.00     0.069 A 
ATOM      7  C8   11 d          -7.526 206.852 118.590  0.00  0.00     0.050 A 
ATOM      8  C9   11 d         -11.351 207.097 118.910  0.00  0.00     0.040 C 
ATOM      9  C10  11 d         -11.610 207.482 117.442  0.00  0.00     0.018 C 
ATOM     10  C11  11 d         -10.622 208.573 116.991  0.00  0.00     0.070 C 
ATOM     11  C12  11 d         -10.590 209.027 115.524  0.00  0.00     0.156 C 
ATOM     12  C13  11 d         -11.333 208.107 114.567  0.00  0.00    -0.032 A 
ATOM     13  C14  11 d         -10.707 206.983 113.983  0.00  0.00     0.012 A 
ATOM     14  C15  11 d         -11.391 206.192 113.046  0.00  0.00     0.043 A 
ATOM     15  C16  11 d         -12.697 206.527 112.664  0.00  0.00     0.116 A 
ATOM     16  F1   11 d         -13.362 205.755 111.757  0.00  0.00    -0.206 F 
ATOM     17  C17  11 d         -13.317 207.659 113.210  0.00  0.00     0.043 A 
ATOM     18  C18  11 d         -12.635 208.452 114.145  0.00  0.00     0.012 A 
ATOM     19  N1   11 d          -9.124 209.058 115.264  0.00  0.00    -0.228 N 
ATOM     20  C19  11 d          -8.512 209.626 114.108  0.00  0.00     0.236 C 
ATOM     21  O2   11 d          -9.243 210.180 113.212  0.00  0.00    -0.272 OA
ATOM     22  C20  11 d          -7.022 209.633 113.942  0.00  0.00     0.119 C 
ATOM     23  N2   11 d          -8.370 208.466 116.273  0.00  0.00    -0.172 NA
ENDROOT
BRANCH   6  24
ATOM     24  O1   11 d          -5.873 205.625 119.912  0.00  0.00    -0.356 OA
ATOM     25  C7   11 d          -5.624 204.254 119.511  0.00  0.00     0.210 C 
ENDBRANCH   6  24
TORSDOF 1
ENDMDL
MODEL 4
REMARK VINA RESULT:      -7.6      3.443      7.341
REMARK  1 active torsions:
REMARK  status: ('A' for Active; 'I' for Inactive)
REMARK    1  A    between atoms: C6_6  and  O1_7 
REMARK       I    between atoms: N1_21  and  C19_22 
ROOT
ATOM      1  C1   11 d          -8.834 208.660 112.728  0.00  0.00     0.072 C 
ATOM      2  C2   11 d          -7.351 208.685 112.799  0.00  0.00    -0.000 A 
ATOM      3  C3   11 d          -6.731 209.192 113.971  0.00  0.00    -0.046 A 
ATOM      4  C4   11 d          -5.327 209.150 114.078  0.00  0.00     0.011 A 
ATOM      5  C5   11 d          -4.547 208.660 113.021  0.00  0.00     0.037 A 
ATOM      6  C6   11 d          -5.160 208.157 111.864  0.00  0.00     0.069 A 
ATOM      7  C8   11 d          -6.558 208.196 111.743  0.00  0.00     0.050 A 
ATOM      8  C9   11 d          -7.555 209.642 115.165  0.00  0.00     0.040 C 
ATOM      9  C10  11 d          -8.968 209.032 115.191  0.00  0.00     0.018 C 
ATOM     10  C11  11 d          -9.665 209.234 113.834  0.00  0.00     0.070 C 
ATOM     11  C12  11 d         -11.035 208.592 113.566  0.00  0.00     0.156 C 
ATOM     12  C13  11 d         -11.435 207.526 114.575  0.00  0.00    -0.032 A 
ATOM     13  C14  11 d         -11.041 206.178 114.425  0.00  0.00     0.012 A 
ATOM     14  C15  11 d         -11.485 205.200 115.328  0.00  0.00     0.043 A 
ATOM     15  C16  11 d         -12.345 205.552 116.377  0.00  0.00     0.116 A 
ATOM     16  F1   11 d         -12.773 204.601 117.258  0.00  0.00    -0.206 F 
ATOM     17  C17  11 d         -12.772 206.879 116.517  0.00  0.00     0.043 A 
ATOM     18  C18  11 d         -12.331 207.858 115.614  0.00  0.00     0.012 A 
ATOM     19  N1   11 d         -10.830 208.037 112.198  0.00  0.00    -0.228 N 
ATOM     20  C19  11 d         -11.863 207.516 111.367  0.00  0.00     0.236 C 
ATOM     21  O2   11 d         -13.076 207.528 111.780  0.00  0.00    -0.272 OA
ATOM     22  C20  11 d         -11.566 206.999 109.991  0.00  0.00     0.119 C 
ATOM     23  N2   11 d          -9.502 208.065 111.784  0.00  0.00    -0.172 NA
ENDROOT
BRANCH   6  24
ATOM     24  O1   11 d          -4.363 207.729 110.769  0.00  0.00    -0.356 OA
ATOM     25  C7   11 d          -3.084 208.411 110.812  0.00  0.00     0.210 C 
ENDBRANCH   6  24
TORSDOF 1
ENDMDL
MODEL 5
REMARK VINA RESULT:      -7.4      3.753      7.759
REMARK  1 active torsions:
REMARK  status: ('A' for Active; 'I' for Inactive)
REMARK    1  A    between atoms: C6_6  and  O1_7 
REMARK       I    between atoms: N1_21  and  C19_22 
ROOT
ATOM      1  C1   11 d         -10.712 208.448 113.785  0.00  0.00     0.072 C 
ATOM      2  C2   11 d          -9.233 208.572 113.737  0.00  0.00    -0.000 A 
ATOM      3  C3   11 d          -8.545 209.006 114.900  0.00  0.00    -0.046 A 
ATOM      4  C4   11 d          -7.137 209.054 114.887  0.00  0.00     0.011 A 
ATOM      5  C5   11 d          -6.424 208.725 113.725  0.00  0.00     0.037 A 
ATOM      6  C6   11 d          -7.105 208.294 112.577  0.00  0.00     0.069 A 
ATOM      7  C8   11 d          -8.507 208.245 112.575  0.00  0.00     0.050 A 
ATOM      8  C9   11 d          -9.287 209.278 116.197  0.00  0.00     0.040 C 
ATOM      9  C10  11 d         -10.651 208.569 116.276  0.00  0.00     0.018 C 
ATOM     10  C11  11 d         -11.477 208.852 115.008  0.00  0.00     0.070 C 
ATOM     11  C12  11 d         -12.822 208.142 114.788  0.00  0.00     0.156 C 
ATOM     12  C13  11 d         -13.063 206.958 115.712  0.00  0.00    -0.032 A 
ATOM     13  C14  11 d         -12.600 205.663 115.393  0.00  0.00     0.012 A 
ATOM     14  C15  11 d         -12.901 204.572 116.224  0.00  0.00     0.043 A 
ATOM     15  C16  11 d         -13.685 204.759 117.370  0.00  0.00     0.116 A 
ATOM     16  F1   11 d         -13.972 203.699 118.181  0.00  0.00    -0.206 F 
ATOM     17  C17  11 d         -14.180 206.033 117.680  0.00  0.00     0.043 A 
ATOM     18  C18  11 d         -13.883 207.123 116.849  0.00  0.00     0.012 A 
ATOM     19  N1   11 d         -12.704 207.738 113.359  0.00  0.00    -0.228 N 
ATOM     20  C19  11 d         -13.772 207.228 112.565  0.00  0.00     0.236 C 
ATOM     21  O2   11 d         -14.942 207.114 113.076  0.00  0.00    -0.272 OA
ATOM     22  C20  11 d         -13.566 206.869 111.124  0.00  0.00     0.119 C 
ATOM     23  N2   11 d         -11.422 207.901 112.842  0.00  0.00    -0.172 NA
ENDROOT
BRANCH   6  24
ATOM     24  O1   11 d          -6.382 208.032 111.382  0.00  0.00    -0.356 OA
ATOM     25  C7   11 d          -4.962 208.014 111.675  0.00  0.00     0.210 C 
ENDBRANCH   6  24
TORSDOF 1
ENDMDL
MODEL 6
REMARK VINA RESULT:      -7.4      4.162      7.335
REMARK  1 active torsions:
REMARK  status: ('A' for Active; 'I' for Inactive)
REMARK    1  A    between atoms: C6_6  and  O1_7 
REMARK       I    between atoms: N1_21  and  C19_22 
ROOT
ATOM      1  C1   11 d         -11.682 207.750 116.169  0.00  0.00     0.072 C 
ATOM      2  C2   11 d         -11.800 207.093 117.496  0.00  0.00    -0.000 A 
ATOM      3  C3   11 d         -13.089 206.943 118.072  0.00  0.00    -0.046 A 
ATOM      4  C4   11 d         -13.218 206.255 119.294  0.00  0.00     0.011 A 
ATOM      5  C5   11 d         -12.085 205.766 119.959  0.00  0.00     0.037 A 
ATOM      6  C6   11 d         -10.812 205.912 119.388  0.00  0.00     0.069 A 
ATOM      7  C8   11 d         -10.669 206.599 118.173  0.00  0.00     0.050 A 
ATOM      8  C9   11 d         -14.338 207.382 117.328  0.00  0.00     0.040 C 
ATOM      9  C10  11 d         -14.134 207.480 115.805  0.00  0.00     0.018 C 
ATOM     10  C11  11 d         -12.885 208.321 115.485  0.00  0.00     0.070 C 
ATOM     11  C12  11 d         -12.393 208.450 114.035  0.00  0.00     0.156 C 
ATOM     12  C13  11 d         -13.014 207.451 113.071  0.00  0.00    -0.032 A 
ATOM     13  C14  11 d         -12.468 206.161 112.888  0.00  0.00     0.012 A 
ATOM     14  C15  11 d         -13.014 205.283 111.938  0.00  0.00     0.043 A 
ATOM     15  C16  11 d         -14.095 205.691 111.145  0.00  0.00     0.116 A 
ATOM     16  F1   11 d         -14.628 204.836 110.225  0.00  0.00    -0.206 F 
ATOM     17  C17  11 d         -14.623 206.981 111.292  0.00  0.00     0.043 A 
ATOM     18  C18  11 d         -14.078 207.860 112.239  0.00  0.00     0.012 A 
ATOM     19  N1   11 d         -10.928 208.243 114.209  0.00  0.00    -0.228 N 
ATOM     20  C19  11 d          -9.946 208.476 113.202  0.00  0.00     0.236 C 
ATOM     21  O2   11 d         -10.308 208.917 112.054  0.00  0.00    -0.272 OA
ATOM     22  C20  11 d          -8.488 208.262 113.476  0.00  0.00     0.119 C 
ATOM     23  N2   11 d         -10.581 207.786 115.477  0.00  0.00    -0.172 NA
ENDROOT
BRANCH   6  24
ATOM     24  O1   11 d          -9.662 205.479 120.101  0.00  0.00    -0.356 OA
ATOM     25  C7   11 d          -8.558 206.375 119.820  0.00  0.00     0.210 C 
ENDBRANCH   6  24
TORSDOF 1
ENDMDL
MODEL 7
REMARK VINA RESULT:      -7.1      2.549      3.508
REMARK  1 active torsions:
REMARK  status: ('A' for Active; 'I' for Inactive)
REMARK    1  A    between atoms: C6_6  and  O1_7 
REMARK       I    between atoms: N1_21  and  C19_22 
ROOT
ATOM      1  C1   11 d          -7.365 208.820 115.632  0.00  0.00     0.072 C 
ATOM      2  C2   11 d          -8.029 208.693 114.309  0.00  0.00    -0.000 A 
ATOM      3  C3   11 d          -7.239 208.803 113.134  0.00  0.00    -0.046 A 
ATOM      4  C4   11 d          -7.846 208.609 111.878  0.00  0.00     0.011 A 
ATOM      5  C5   11 d          -9.222 208.359 111.784  0.00  0.00     0.037 A 
ATOM      6  C6   11 d         -10.002 208.248 112.945  0.00  0.00     0.069 A 
ATOM      7  C8   11 d          -9.410 208.443 114.202  0.00  0.00     0.050 A 
ATOM      8  C9   11 d          -5.733 208.981 113.214  0.00  0.00     0.040 C 
ATOM      9  C10  11 d          -5.136 208.514 114.554  0.00  0.00     0.018 C 
ATOM     10  C11  11 d          -5.906 209.142 115.731  0.00  0.00     0.070 C 
ATOM     11  C12  11 d          -5.587 208.721 117.174  0.00  0.00     0.156 C 
ATOM     12  C13  11 d          -4.744 207.460 117.287  0.00  0.00    -0.032 A 
ATOM     13  C14  11 d          -5.330 206.175 117.296  0.00  0.00     0.012 A 
ATOM     14  C15  11 d          -4.538 205.030 117.477  0.00  0.00     0.043 A 
ATOM     15  C16  11 d          -3.156 205.157 117.673  0.00  0.00     0.116 A 
ATOM     16  F1   11 d          -2.386 204.043 117.844  0.00  0.00    -0.206 F 
ATOM     17  C17  11 d          -2.567 206.428 117.701  0.00  0.00     0.043 A 
ATOM     18  C18  11 d          -3.357 207.573 117.523  0.00  0.00     0.012 A 
ATOM     19  N1   11 d          -6.957 208.545 117.732  0.00  0.00    -0.228 N 
ATOM     20  C19  11 d          -7.258 208.366 119.113  0.00  0.00     0.236 C 
ATOM     21  O2   11 d          -6.309 208.372 119.974  0.00  0.00    -0.272 OA
ATOM     22  C20  11 d          -8.673 208.220 119.587  0.00  0.00     0.119 C 
ATOM     23  N2   11 d          -7.956 208.568 116.763  0.00  0.00    -0.172 NA
ENDROOT
BRANCH   6  24
ATOM     24  O1   11 d         -11.407 208.067 112.840  0.00  0.00    -0.356 OA
ATOM     25  C7   11 d         -11.687 207.065 111.830  0.00  0.00     0.210 C 
ENDBRANCH   6  24
TORSDOF 1
ENDMDL
MODEL 8
REMARK VINA RESULT:      -6.7      7.861     11.980
REMARK  1 active torsions:
REMARK  status: ('A' for Active; 'I' for Inactive)
REMARK    1  A    between atoms: C6_6  and  O1_7 
REMARK       I    between atoms: N1_21  and  C19_22 
ROOT
ATOM      1  C1   11 d         -14.451 204.817 119.811  0.00  0.00     0.072 C 
ATOM      2  C2   11 d         -13.842 205.406 118.591  0.00  0.00    -0.000 A 
ATOM      3  C3   11 d         -14.050 204.759 117.344  0.00  0.00    -0.046 A 
ATOM      4  C4   11 d         -13.540 205.351 116.171  0.00  0.00     0.011 A 
ATOM      5  C5   11 d         -12.796 206.537 116.238  0.00  0.00     0.037 A 
ATOM      6  C6   11 d         -12.593 207.176 117.470  0.00  0.00     0.069 A 
ATOM      7  C8   11 d         -13.092 206.596 118.646  0.00  0.00     0.050 A 
ATOM      8  C9   11 d         -14.929 203.526 117.234  0.00  0.00     0.040 C 
ATOM      9  C10  11 d         -15.927 203.387 118.398  0.00  0.00     0.018 C 
ATOM     10  C11  11 d         -15.199 203.522 119.748  0.00  0.00     0.070 C 
ATOM     11  C12  11 d         -16.002 203.556 121.057  0.00  0.00     0.156 C 
ATOM     12  C13  11 d         -17.494 203.782 120.872  0.00  0.00    -0.032 A 
ATOM     13  C14  11 d         -18.042 205.081 120.783  0.00  0.00     0.012 A 
ATOM     14  C15  11 d         -19.430 205.265 120.687  0.00  0.00     0.043 A 
ATOM     15  C16  11 d         -20.288 204.158 120.702  0.00  0.00     0.116 A 
ATOM     16  F1   11 d         -21.638 204.337 120.605  0.00  0.00    -0.206 F 
ATOM     17  C17  11 d         -19.760 202.865 120.826  0.00  0.00     0.043 A 
ATOM     18  C18  11 d         -18.373 202.679 120.924  0.00  0.00     0.012 A 
ATOM     19  N1   11 d         -15.337 204.681 121.773  0.00  0.00    -0.228 N 
ATOM     20  C19  11 d         -15.544 205.011 123.144  0.00  0.00     0.236 C 
ATOM     21  O2   11 d         -16.337 204.297 123.855  0.00  0.00    -0.272 OA
ATOM     22  C20  11 d         -14.812 206.150 123.787  0.00  0.00     0.119 C 
ATOM     23  N2   11 d         -14.470 205.413 120.968  0.00  0.00    -0.172 NA
ENDROOT
BRANCH   6  24
ATOM     24  O1   11 d         -11.778 208.337 117.539  0.00  0.00    -0.356 OA
ATOM     25  C7   11 d         -10.541 208.014 118.225  0.00  0.00     0.210 C 
ENDBRANCH   6  24
TORSDOF 1
ENDMDL
MODEL 9
REMARK VINA RESULT:      -6.7     15.018     18.974
REMARK  1 active torsions:
REMARK  status: ('A' for Active; 'I' for Inactive)
REMARK    1  A    between atoms: C6_6  and  O1_7 
REMARK       I    between atoms: N1_21  and  C19_22 
ROOT
ATOM      1  C1   11 d         -20.417 202.641 124.232  0.00  0.00     0.072 C 
ATOM      2  C2   11 d         -19.797 203.775 123.500  0.00  0.00    -0.000 A 
ATOM      3  C3   11 d         -19.826 203.769 122.080  0.00  0.00    -0.046 A 
ATOM      4  C4   11 d         -19.308 204.876 121.379  0.00  0.00     0.011 A 
ATOM      5  C5   11 d         -18.726 205.948 122.071  0.00  0.00     0.037 A 
ATOM      6  C6   11 d         -18.700 205.954 123.473  0.00  0.00     0.069 A 
ATOM      7  C8   11 d         -19.209 204.856 124.184  0.00  0.00     0.050 A 
ATOM      8  C9   11 d         -20.532 202.665 121.313  0.00  0.00     0.040 C 
ATOM      9  C10  11 d         -21.590 201.925 122.150  0.00  0.00     0.018 C 
ATOM     10  C11  11 d         -20.989 201.471 123.493  0.00  0.00     0.070 C 
ATOM     11  C12  11 d         -21.886 200.829 124.563  0.00  0.00     0.156 C 
ATOM     12  C13  11 d         -23.377 201.000 124.315  0.00  0.00    -0.032 A 
ATOM     13  C14  11 d         -24.076 202.145 124.758  0.00  0.00     0.012 A 
ATOM     14  C15  11 d         -25.465 202.245 124.584  0.00  0.00     0.043 A 
ATOM     15  C16  11 d         -26.175 201.196 123.986  0.00  0.00     0.116 A 
ATOM     16  F1   11 d         -27.525 201.296 123.812  0.00  0.00    -0.206 F 
ATOM     17  C17  11 d         -25.499 200.040 123.573  0.00  0.00     0.043 A 
ATOM     18  C18  11 d         -24.111 199.936 123.749  0.00  0.00     0.012 A 
ATOM     19  N1   11 d         -21.425 201.539 125.789  0.00  0.00    -0.228 N 
ATOM     20  C19  11 d         -21.775 201.176 127.122  0.00  0.00     0.236 C 
ATOM     21  O2   11 d         -22.523 200.155 127.325  0.00  0.00    -0.272 OA
ATOM     22  C20  11 d         -21.243 201.937 128.299  0.00  0.00     0.119 C 
ATOM     23  N2   11 d         -20.598 202.626 125.520  0.00  0.00    -0.172 NA
ENDROOT
BRANCH   6  24
ATOM     24  O1   11 d         -18.045 207.007 124.165  0.00  0.00    -0.356 OA
ATOM     25  C7   11 d         -18.983 207.642 125.071  0.00  0.00     0.210 C 
ENDBRANCH   6  24
TORSDOF 1
ENDMDL
MODEL 10
REMARK VINA RESULT:      -6.7      3.375      5.713
REMARK  1 active torsions:
REMARK  status: ('A' for Active; 'I' for Inactive)
REMARK    1  A    between atoms: C6_6  and  O1_7 
REMARK       I    between atoms: N1_21  and  C19_22 
ROOT
ATOM      1  C1   11 d          -7.918 208.087 117.449  0.00  0.00     0.072 C 
ATOM      2  C2   11 d          -9.379 207.914 117.245  0.00  0.00    -0.000 A 
ATOM      3  C3   11 d         -10.169 207.440 118.326  0.00  0.00    -0.046 A 
ATOM      4  C4   11 d         -11.565 207.344 118.165  0.00  0.00     0.011 A 
ATOM      5  C5   11 d         -12.164 207.665 116.939  0.00  0.00     0.037 A 
ATOM      6  C6   11 d         -11.383 208.135 115.872  0.00  0.00     0.069 A 
ATOM      7  C8   11 d          -9.991 208.232 116.018  0.00  0.00     0.050 A 
ATOM      8  C9   11 d          -9.556 207.175 119.690  0.00  0.00     0.040 C 
ATOM      9  C10  11 d          -8.234 207.929 119.918  0.00  0.00     0.018 C 
ATOM     10  C11  11 d          -7.271 207.692 118.741  0.00  0.00     0.070 C 
ATOM     11  C12  11 d          -5.937 208.450 118.670  0.00  0.00     0.156 C 
ATOM     12  C13  11 d          -5.835 209.629 119.627  0.00  0.00    -0.032 A 
ATOM     13  C14  11 d          -6.308 210.912 119.274  0.00  0.00     0.012 A 
ATOM     14  C15  11 d          -6.134 212.000 120.144  0.00  0.00     0.043 A 
ATOM     15  C16  11 d          -5.467 211.825 121.364  0.00  0.00     0.116 A 
ATOM     16  F1   11 d          -5.304 212.882 122.211  0.00  0.00    -0.206 F 
ATOM     17  C17  11 d          -4.963 210.564 121.710  0.00  0.00     0.043 A 
ATOM     18  C18  11 d          -5.133 209.476 120.841  0.00  0.00     0.012 A 
ATOM     19  N1   11 d          -5.919 208.870 117.241  0.00  0.00    -0.228 N 
ATOM     20  C19  11 d          -4.793 209.428 116.569  0.00  0.00     0.236 C 
ATOM     21  O2   11 d          -3.687 209.575 117.200  0.00  0.00    -0.272 OA
ATOM     22  C20  11 d          -4.861 209.800 115.118  0.00  0.00     0.119 C 
ATOM     23  N2   11 d          -7.134 208.671 116.591  0.00  0.00    -0.172 NA
ENDROOT
BRANCH   6  24
ATOM     24  O1   11 d         -11.987 208.389 114.611  0.00  0.00    -0.356 OA
ATOM     25  C7   11 d         -11.119 207.901 113.557  0.00  0.00     0.210 C 
ENDBRANCH   6  24
TORSDOF 1
ENDMDL
