MODEL 1
REMARK VINA RESULT:     -10.6      0.000      0.000
REMARK  5 active torsions:
REMARK  status: ('A' for Active; 'I' for Inactive)
REMARK    1  A    between atoms: C1_1  and  N7_23 
REMARK       I    between atoms: C4_5  and  N3_7 
REMARK    2  A    between atoms: N3_7  and  C5_8 
REMARK    3  A    between atoms: C8_11  and  N4_14 
REMARK    4  A    between atoms: N7_23  and  C17_24 
REMARK    5  A    between atoms: C17_24  and  C18_25 
ROOT
ATOM      1  C1   11 d         -10.743 207.934 112.602  0.00  0.00     0.176 A 
ATOM      2  C2   11 d          -9.449 208.428 112.816  0.00  0.00     0.151 A 
ATOM      3  C3   11 d          -9.027 208.707 114.093  0.00  0.00     0.183 A 
ATOM      4  N1   11 d          -9.829 208.521 115.174  0.00  0.00    -0.042 NA
ATOM      5  C4   11 d         -11.095 208.039 114.983  0.00  0.00     0.726 A 
ATOM      6  N2   11 d         -11.532 207.754 113.711  0.00  0.00    -0.043 NA
ATOM      7  N3   11 d         -11.901 207.826 116.088  0.00  0.00    -0.218 N 
ATOM      8  N5   11 d          -7.755 209.141 114.031  0.00  0.00    -0.319 N 
ATOM      9  C11  11 d          -7.418 209.149 112.710  0.00  0.00     0.212 A 
ATOM     10  N6   11 d          -8.451 208.702 111.954  0.00  0.00    -0.236 NA
ATOM     11  C12  11 d          -6.963 209.613 115.184  0.00  0.00     0.092 C 
ATOM     12  C13  11 d          -5.816 210.571 114.843  0.00  0.00     0.026 C 
ATOM     13  C14  11 d          -4.581 209.697 114.610  0.00  0.00     0.002 C 
ATOM     14  C15  11 d          -4.974 208.281 115.022  0.00  0.00     0.002 C 
ATOM     15  C16  11 d          -6.236 208.450 115.851  0.00  0.00     0.026 C 
ATOM     16  H1   11 d         -11.550 208.133 116.966  0.00  0.00     0.178 HD
ENDROOT
BRANCH   7  17
ATOM     17  C5   11 d         -13.188 207.222 116.005  0.00  0.00     0.099 C 
ATOM     18  C6   11 d         -14.139 207.717 117.118  0.00  0.00     0.027 C 
ATOM     19  C7   11 d         -13.764 207.179 118.511  0.00  0.00     0.035 C 
ATOM     20  C8   11 d         -13.632 205.640 118.526  0.00  0.00     0.183 C 
ATOM     21  C9   11 d         -12.672 205.159 117.417  0.00  0.00     0.035 C 
ATOM     22  C10  11 d         -13.098 205.682 116.038  0.00  0.00     0.027 C 
BRANCH  20  23
ATOM     23  N4   11 d         -13.188 205.151 119.863  0.00  0.00    -0.075 N 
ATOM     24  H12  11 d         -12.294 205.649 120.177  0.00  0.00     0.274 HD
ATOM     25  H13  11 d         -13.948 205.324 120.598  0.00  0.00     0.274 HD
ATOM     26  H14  11 d         -12.994 204.097 119.833  0.00  0.00     0.274 HD
ENDBRANCH  20  23
ENDBRANCH   7  17
BRANCH   1  27
ATOM     27  N7   11 d         -11.210 207.623 111.330  0.00  0.00    -0.368 N 
ATOM     28  H25  11 d         -11.042 208.281 110.610  0.00  0.00     0.161 HD
BRANCH  27  29
ATOM     29  C17  11 d         -11.901 206.412 111.068  0.00  0.00     0.160 C 
BRANCH  29  30
ATOM     30  C18  11 d         -13.423 206.424 111.044  0.00  0.00    -0.041 A 
ATOM     31  C19  11 d         -14.076 205.688 112.057  0.00  0.00     0.009 A 
ATOM     32  C20  11 d         -15.477 205.631 112.121  0.00  0.00     0.001 A 
ATOM     33  C21  11 d         -16.249 206.312 111.174  0.00  0.00     0.000 A 
ATOM     34  C22  11 d         -15.622 207.049 110.162  0.00  0.00     0.001 A 
ATOM     35  C23  11 d         -14.221 207.108 110.093  0.00  0.00     0.009 A 
ENDBRANCH  29  30
ENDBRANCH  27  29
ENDBRANCH   1  27
TORSDOF 5
ENDMDL
MODEL 2
REMARK VINA RESULT:      -9.4      2.006      6.888
REMARK  5 active torsions:
REMARK  status: ('A' for Active; 'I' for Inactive)
REMARK    1  A    between atoms: C1_1  and  N7_23 
REMARK       I    between atoms: C4_5  and  N3_7 
REMARK    2  A    between atoms: N3_7  and  C5_8 
REMARK    3  A    between atoms: C8_11  and  N4_14 
REMARK    4  A    between atoms: N7_23  and  C17_24 
REMARK    5  A    between atoms: C17_24  and  C18_25 
ROOT
ATOM      1  C1   11 d         -11.543 207.003 116.271  0.00  0.00     0.176 A 
ATOM      2  C2   11 d         -12.079 206.703 115.010  0.00  0.00     0.151 A 
ATOM      3  C3   11 d         -13.369 206.243 114.908  0.00  0.00     0.183 A 
ATOM      4  N1   11 d         -14.159 206.063 115.999  0.00  0.00    -0.042 NA
ATOM      5  C4   11 d         -13.653 206.352 117.236  0.00  0.00     0.726 A 
ATOM      6  N2   11 d         -12.363 206.814 117.356  0.00  0.00    -0.043 NA
ATOM      7  N3   11 d         -14.468 206.193 118.344  0.00  0.00    -0.218 N 
ATOM      8  N5   11 d         -13.646 206.053 113.605  0.00  0.00    -0.319 N 
ATOM      9  C11  11 d         -12.511 206.374 112.922  0.00  0.00     0.212 A 
ATOM     10  N6   11 d         -11.542 206.786 113.777  0.00  0.00    -0.236 NA
ATOM     11  C12  11 d         -14.909 205.496 113.079  0.00  0.00     0.092 C 
ATOM     12  C13  11 d         -14.809 204.838 111.698  0.00  0.00     0.026 C 
ATOM     13  C14  11 d         -15.103 205.938 110.675  0.00  0.00     0.002 C 
ATOM     14  C15  11 d         -15.572 207.151 111.474  0.00  0.00     0.002 C 
ATOM     15  C16  11 d         -15.931 206.603 112.846  0.00  0.00     0.026 C 
ATOM     16  H1   11 d         -15.358 205.777 118.191  0.00  0.00     0.178 HD
ENDROOT
BRANCH   7  17
ATOM     17  C5   11 d         -14.074 206.573 119.659  0.00  0.00     0.099 C 
ATOM     18  C6   11 d         -13.550 205.375 120.481  0.00  0.00     0.027 C 
ATOM     19  C7   11 d         -14.664 204.394 120.890  0.00  0.00     0.035 C 
ATOM     20  C8   11 d         -15.832 205.105 121.611  0.00  0.00     0.183 C 
ATOM     21  C9   11 d         -16.353 206.294 120.775  0.00  0.00     0.035 C 
ATOM     22  C10  11 d         -15.223 207.269 120.418  0.00  0.00     0.027 C 
BRANCH  20  23
ATOM     23  N4   11 d         -16.933 204.149 121.923  0.00  0.00    -0.075 N 
ATOM     24  H12  11 d         -17.890 204.601 121.761  0.00  0.00     0.274 HD
ATOM     25  H13  11 d         -16.861 203.277 121.306  0.00  0.00     0.274 HD
ATOM     26  H14  11 d         -16.879 203.834 122.946  0.00  0.00     0.274 HD
ENDBRANCH  20  23
ENDBRANCH   7  17
BRANCH   1  27
ATOM     27  N7   11 d         -10.249 207.485 116.424  0.00  0.00    -0.368 N 
ATOM     28  H25  11 d          -9.583 206.878 116.835  0.00  0.00     0.161 HD
BRANCH  27  29
ATOM     29  C17  11 d          -9.889 208.793 116.010  0.00  0.00     0.160 C 
BRANCH  29  30
ATOM     30  C18  11 d          -8.791 208.960 114.970  0.00  0.00    -0.041 A 
ATOM     31  C19  11 d          -7.460 208.908 115.442  0.00  0.00     0.009 A 
ATOM     32  C20  11 d          -6.375 209.056 114.565  0.00  0.00     0.001 A 
ATOM     33  C21  11 d          -6.602 209.255 113.198  0.00  0.00     0.000 A 
ATOM     34  C22  11 d          -7.913 209.308 112.709  0.00  0.00     0.001 A 
ATOM     35  C23  11 d          -9.002 209.162 113.583  0.00  0.00     0.009 A 
ENDBRANCH  29  30
ENDBRANCH  27  29
ENDBRANCH   1  27
TORSDOF 5
ENDMDL
MODEL 3
REMARK VINA RESULT:      -8.6      2.586      7.552
REMARK  5 active torsions:
REMARK  status: ('A' for Active; 'I' for Inactive)
REMARK    1  A    between atoms: C1_1  and  N7_23 
REMARK       I    between atoms: C4_5  and  N3_7 
REMARK    2  A    between atoms: N3_7  and  C5_8 
REMARK    3  A    between atoms: C8_11  and  N4_14 
REMARK    4  A    between atoms: N7_23  and  C17_24 
REMARK    5  A    between atoms: C17_24  and  C18_25 
ROOT
ATOM      1  C1   11 d         -12.138 207.832 116.326  0.00  0.00     0.176 A 
ATOM      2  C2   11 d         -12.622 207.487 115.056  0.00  0.00     0.151 A 
ATOM      3  C3   11 d         -13.648 206.581 114.939  0.00  0.00     0.183 A 
ATOM      4  N1   11 d         -14.220 205.995 116.023  0.00  0.00    -0.042 NA
ATOM      5  C4   11 d         -13.761 206.320 117.270  0.00  0.00     0.726 A 
ATOM      6  N2   11 d         -12.735 207.227 117.405  0.00  0.00    -0.043 NA
ATOM      7  N3   11 d         -14.362 205.742 118.374  0.00  0.00    -0.218 N 
ATOM      8  N5   11 d         -13.938 206.441 113.632  0.00  0.00    -0.319 N 
ATOM      9  C11  11 d         -13.068 207.246 112.959  0.00  0.00     0.212 A 
ATOM     10  N6   11 d         -12.259 207.902 113.828  0.00  0.00    -0.236 NA
ATOM     11  C12  11 d         -14.936 205.502 113.082  0.00  0.00     0.092 C 
ATOM     12  C13  11 d         -14.709 205.086 111.624  0.00  0.00     0.026 C 
ATOM     13  C14  11 d         -15.479 206.092 110.764  0.00  0.00     0.002 C 
ATOM     14  C15  11 d         -16.303 206.938 111.731  0.00  0.00     0.002 C 
ATOM     15  C16  11 d         -16.315 206.150 113.030  0.00  0.00     0.026 C 
ATOM     16  H1   11 d         -15.038 205.034 118.198  0.00  0.00     0.178 HD
ENDROOT
BRANCH   7  17
ATOM     17  C5   11 d         -14.035 206.100 119.713  0.00  0.00     0.099 C 
ATOM     18  C6   11 d         -14.156 204.904 120.684  0.00  0.00     0.027 C 
ATOM     19  C7   11 d         -15.616 204.490 120.947  0.00  0.00     0.035 C 
ATOM     20  C8   11 d         -16.486 205.680 121.408  0.00  0.00     0.183 C 
ATOM     21  C9   11 d         -16.364 206.865 120.425  0.00  0.00     0.035 C 
ATOM     22  C10  11 d         -14.900 207.275 120.216  0.00  0.00     0.027 C 
BRANCH  20  23
ATOM     23  N4   11 d         -17.911 205.273 121.577  0.00  0.00    -0.075 N 
ATOM     24  H12  11 d         -18.062 204.789 122.520  0.00  0.00     0.274 HD
ATOM     25  H13  11 d         -18.555 206.127 121.527  0.00  0.00     0.274 HD
ATOM     26  H14  11 d         -18.203 204.595 120.800  0.00  0.00     0.274 HD
ENDBRANCH  20  23
ENDBRANCH   7  17
BRANCH   1  27
ATOM     27  N7   11 d         -11.113 208.754 116.497  0.00  0.00    -0.368 N 
ATOM     28  H25  11 d         -11.368 209.674 116.763  0.00  0.00     0.161 HD
BRANCH  27  29
ATOM     29  C17  11 d          -9.754 208.400 116.300  0.00  0.00     0.160 C 
BRANCH  29  30
ATOM     30  C18  11 d          -8.848 208.251 117.514  0.00  0.00    -0.041 A 
ATOM     31  C19  11 d          -9.460 208.400 118.779  0.00  0.00     0.009 A 
ATOM     32  C20  11 d          -8.712 208.286 119.961  0.00  0.00     0.001 A 
ATOM     33  C21  11 d          -7.340 208.018 119.899  0.00  0.00     0.000 A 
ATOM     34  C22  11 d          -6.715 207.865 118.655  0.00  0.00     0.001 A 
ATOM     35  C23  11 d          -7.458 207.979 117.470  0.00  0.00     0.009 A 
ENDBRANCH  29  30
ENDBRANCH  27  29
ENDBRANCH   1  27
TORSDOF 5
ENDMDL
MODEL 4
REMARK VINA RESULT:      -8.6      2.073      3.414
REMARK  5 active torsions:
REMARK  status: ('A' for Active; 'I' for Inactive)
REMARK    1  A    between atoms: C1_1  and  N7_23 
REMARK       I    between atoms: C4_5  and  N3_7 
REMARK    2  A    between atoms: N3_7  and  C5_8 
REMARK    3  A    between atoms: C8_11  and  N4_14 
REMARK    4  A    between atoms: N7_23  and  C17_24 
REMARK    5  A    between atoms: C17_24  and  C18_25 
ROOT
ATOM      1  C1   11 d          -8.885 209.095 115.072  0.00  0.00     0.176 A 
ATOM      2  C2   11 d          -7.654 208.812 115.682  0.00  0.00     0.151 A 
ATOM      3  C3   11 d          -7.625 208.164 116.892  0.00  0.00     0.183 A 
ATOM      4  N1   11 d          -8.761 207.781 117.533  0.00  0.00    -0.042 NA
ATOM      5  C4   11 d          -9.970 208.048 116.952  0.00  0.00     0.726 A 
ATOM      6  N2   11 d         -10.016 208.696 115.740  0.00  0.00    -0.043 NA
ATOM      7  N3   11 d         -11.124 207.635 117.594  0.00  0.00    -0.218 N 
ATOM      8  N5   11 d          -6.338 207.993 117.247  0.00  0.00    -0.319 N 
ATOM      9  C11  11 d          -5.590 208.564 116.260  0.00  0.00     0.212 A 
ATOM     10  N6   11 d          -6.391 209.062 115.286  0.00  0.00    -0.236 NA
ATOM     11  C12  11 d          -5.881 207.400 118.520  0.00  0.00     0.092 C 
ATOM     12  C13  11 d          -4.476 207.817 118.969  0.00  0.00     0.026 C 
ATOM     13  C14  11 d          -3.512 206.786 118.376  0.00  0.00     0.002 C 
ATOM     14  C15  11 d          -4.380 205.683 117.778  0.00  0.00     0.002 C 
ATOM     15  C16  11 d          -5.754 205.886 118.394  0.00  0.00     0.026 C 
ATOM     16  H1   11 d         -11.018 207.249 118.504  0.00  0.00     0.178 HD
ENDROOT
BRANCH   7  17
ATOM     17  C5   11 d         -12.421 207.764 117.019  0.00  0.00     0.099 C 
ATOM     18  C6   11 d         -13.543 207.626 118.073  0.00  0.00     0.027 C 
ATOM     19  C7   11 d         -13.705 206.185 118.591  0.00  0.00     0.035 C 
ATOM     20  C8   11 d         -13.882 205.167 117.443  0.00  0.00     0.183 C 
ATOM     21  C9   11 d         -12.750 205.308 116.403  0.00  0.00     0.035 C 
ATOM     22  C10  11 d         -12.642 206.747 115.879  0.00  0.00     0.027 C 
BRANCH  20  23
ATOM     23  N4   11 d         -13.955 203.773 117.966  0.00  0.00    -0.075 N 
ATOM     24  H12  11 d         -12.980 203.335 118.028  0.00  0.00     0.274 HD
ATOM     25  H13  11 d         -14.395 203.759 118.942  0.00  0.00     0.274 HD
ATOM     26  H14  11 d         -14.558 203.161 117.324  0.00  0.00     0.274 HD
ENDBRANCH  20  23
ENDBRANCH   7  17
BRANCH   1  27
ATOM     27  N7   11 d          -8.965 209.735 113.841  0.00  0.00    -0.368 N 
ATOM     28  H25  11 d          -9.210 210.695 113.842  0.00  0.00     0.161 HD
BRANCH  27  29
ATOM     29  C17  11 d          -8.709 209.047 112.627  0.00  0.00     0.160 C 
BRANCH  29  30
ATOM     30  C18  11 d          -9.854 208.320 111.938  0.00  0.00    -0.041 A 
ATOM     31  C19  11 d         -10.714 207.566 112.768  0.00  0.00     0.009 A 
ATOM     32  C20  11 d         -11.798 206.855 112.230  0.00  0.00     0.001 A 
ATOM     33  C21  11 d         -12.042 206.887 110.852  0.00  0.00     0.000 A 
ATOM     34  C22  11 d         -11.203 207.630 110.012  0.00  0.00     0.001 A 
ATOM     35  C23  11 d         -10.117 208.342 110.545  0.00  0.00     0.009 A 
ENDBRANCH  29  30
ENDBRANCH  27  29
ENDBRANCH   1  27
TORSDOF 5
ENDMDL
MODEL 5
REMARK VINA RESULT:      -8.2      3.441      6.934
REMARK  5 active torsions:
REMARK  status: ('A' for Active; 'I' for Inactive)
REMARK    1  A    between atoms: C1_1  and  N7_23 
REMARK       I    between atoms: C4_5  and  N3_7 
REMARK    2  A    between atoms: N3_7  and  C5_8 
REMARK    3  A    between atoms: C8_11  and  N4_14 
REMARK    4  A    between atoms: N7_23  and  C17_24 
REMARK    5  A    between atoms: C17_24  and  C18_25 
ROOT
ATOM      1  C1   11 d         -10.442 207.581 117.162  0.00  0.00     0.176 A 
ATOM      2  C2   11 d         -10.177 206.940 118.380  0.00  0.00     0.151 A 
ATOM      3  C3   11 d          -8.906 206.959 118.900  0.00  0.00     0.183 A 
ATOM      4  N1   11 d          -7.878 207.586 118.269  0.00  0.00    -0.042 NA
ATOM      5  C4   11 d          -8.119 208.217 117.080  0.00  0.00     0.726 A 
ATOM      6  N2   11 d          -9.387 208.207 116.546  0.00  0.00    -0.043 NA
ATOM      7  N3   11 d          -7.077 208.876 116.451  0.00  0.00    -0.218 N 
ATOM      8  N5   11 d          -8.922 206.301 120.073  0.00  0.00    -0.319 N 
ATOM      9  C11  11 d         -10.199 205.859 120.248  0.00  0.00     0.212 A 
ATOM     10  N6   11 d         -10.983 206.257 119.215  0.00  0.00    -0.236 NA
ATOM     11  C12  11 d          -7.735 206.037 120.913  0.00  0.00     0.092 C 
ATOM     12  C13  11 d          -7.852 204.829 121.849  0.00  0.00     0.026 C 
ATOM     13  C14  11 d          -8.417 205.361 123.169  0.00  0.00     0.002 C 
ATOM     14  C15  11 d          -8.420 206.882 123.051  0.00  0.00     0.002 C 
ATOM     15  C16  11 d          -7.495 207.187 121.884  0.00  0.00     0.026 C 
ATOM     16  H1   11 d          -6.172 208.770 116.851  0.00  0.00     0.178 HD
ENDROOT
BRANCH   7  17
ATOM     17  C5   11 d          -7.249 209.656 115.273  0.00  0.00     0.099 C 
ATOM     18  C6   11 d          -7.268 208.787 113.995  0.00  0.00     0.027 C 
ATOM     19  C7   11 d          -5.887 208.209 113.641  0.00  0.00     0.035 C 
ATOM     20  C8   11 d          -4.798 209.302 113.563  0.00  0.00     0.183 C 
ATOM     21  C9   11 d          -4.782 210.156 114.849  0.00  0.00     0.035 C 
ATOM     22  C10  11 d          -6.166 210.748 115.149  0.00  0.00     0.027 C 
BRANCH  20  23
ATOM     23  N4   11 d          -3.455 208.709 113.301  0.00  0.00    -0.075 N 
ATOM     24  H12  11 d          -3.421 207.685 113.613  0.00  0.00     0.274 HD
ATOM     25  H13  11 d          -3.222 208.752 112.256  0.00  0.00     0.274 HD
ATOM     26  H14  11 d          -2.695 209.248 113.830  0.00  0.00     0.274 HD
ENDBRANCH  20  23
ENDBRANCH   7  17
BRANCH   1  27
ATOM     27  N7   11 d         -11.714 207.601 116.603  0.00  0.00    -0.368 N 
ATOM     28  H25  11 d         -12.273 208.401 116.771  0.00  0.00     0.161 HD
BRANCH  27  29
ATOM     29  C17  11 d         -12.200 206.521 115.821  0.00  0.00     0.160 C 
BRANCH  29  30
ATOM     30  C18  11 d         -12.172 206.639 114.304  0.00  0.00    -0.041 A 
ATOM     31  C19  11 d         -13.259 206.067 113.607  0.00  0.00     0.009 A 
ATOM     32  C20  11 d         -13.326 206.117 112.206  0.00  0.00     0.001 A 
ATOM     33  C21  11 d         -12.308 206.744 111.478  0.00  0.00     0.000 A 
ATOM     34  C22  11 d         -11.223 207.320 112.150  0.00  0.00     0.001 A 
ATOM     35  C23  11 d         -11.150 207.271 113.551  0.00  0.00     0.009 A 
ENDBRANCH  29  30
ENDBRANCH  27  29
ENDBRANCH   1  27
TORSDOF 5
ENDMDL
MODEL 6
REMARK VINA RESULT:      -8.1      3.293      7.727
REMARK  5 active torsions:
REMARK  status: ('A' for Active; 'I' for Inactive)
REMARK    1  A    between atoms: C1_1  and  N7_23 
REMARK       I    between atoms: C4_5  and  N3_7 
REMARK    2  A    between atoms: N3_7  and  C5_8 
REMARK    3  A    between atoms: C8_11  and  N4_14 
REMARK    4  A    between atoms: N7_23  and  C17_24 
REMARK    5  A    between atoms: C17_24  and  C18_25 
ROOT
ATOM      1  C1   11 d         -12.177 206.158 118.967  0.00  0.00     0.176 A 
ATOM      2  C2   11 d         -12.748 206.344 117.699  0.00  0.00     0.151 A 
ATOM      3  C3   11 d         -12.157 207.201 116.803  0.00  0.00     0.183 A 
ATOM      4  N1   11 d         -11.023 207.888 117.102  0.00  0.00    -0.042 NA
ATOM      5  C4   11 d         -10.452 207.717 118.333  0.00  0.00     0.726 A 
ATOM      6  N2   11 d         -11.031 206.863 119.242  0.00  0.00    -0.043 NA
ATOM      7  N3   11 d          -9.283 208.398 118.626  0.00  0.00    -0.218 N 
ATOM      8  N5   11 d         -12.879 207.184 115.667  0.00  0.00    -0.319 N 
ATOM      9  C11  11 d         -13.922 206.336 115.889  0.00  0.00     0.212 A 
ATOM     10  N6   11 d         -13.845 205.805 117.135  0.00  0.00    -0.236 NA
ATOM     11  C12  11 d         -12.614 208.026 114.483  0.00  0.00     0.092 C 
ATOM     12  C13  11 d         -13.825 208.283 113.578  0.00  0.00     0.026 C 
ATOM     13  C14  11 d         -13.825 207.164 112.533  0.00  0.00     0.002 C 
ATOM     14  C15  11 d         -12.512 206.408 112.714  0.00  0.00     0.002 C 
ATOM     15  C16  11 d         -11.636 207.336 113.539  0.00  0.00     0.026 C 
ATOM     16  H1   11 d          -8.969 209.061 117.955  0.00  0.00     0.178 HD
ENDROOT
BRANCH   7  17
ATOM     17  C5   11 d          -8.552 208.203 119.832  0.00  0.00     0.099 C 
ATOM     18  C6   11 d          -8.634 209.428 120.770  0.00  0.00     0.027 C 
ATOM     19  C7   11 d          -7.830 210.635 120.252  0.00  0.00     0.035 C 
ATOM     20  C8   11 d          -6.364 210.266 119.932  0.00  0.00     0.183 C 
ATOM     21  C9   11 d          -6.296 209.047 118.987  0.00  0.00     0.035 C 
ATOM     22  C10  11 d          -7.075 207.852 119.553  0.00  0.00     0.027 C 
BRANCH  20  23
ATOM     23  N4   11 d          -5.629 211.429 119.356  0.00  0.00    -0.075 N 
ATOM     24  H12  11 d          -6.099 211.772 118.457  0.00  0.00     0.274 HD
ATOM     25  H13  11 d          -5.601 212.240 120.054  0.00  0.00     0.274 HD
ATOM     26  H14  11 d          -4.618 211.158 119.125  0.00  0.00     0.274 HD
ENDBRANCH  20  23
ENDBRANCH   7  17
BRANCH   1  27
ATOM     27  N7   11 d         -12.729 205.291 119.901  0.00  0.00    -0.368 N 
ATOM     28  H25  11 d         -12.286 204.414 120.027  0.00  0.00     0.161 HD
BRANCH  27  29
ATOM     29  C17  11 d         -13.882 205.642 120.651  0.00  0.00     0.160 C 
BRANCH  29  30
ATOM     30  C18  11 d         -15.159 204.838 120.455  0.00  0.00    -0.041 A 
ATOM     31  C19  11 d         -16.295 205.273 121.174  0.00  0.00     0.009 A 
ATOM     32  C20  11 d         -17.521 204.599 121.067  0.00  0.00     0.001 A 
ATOM     33  C21  11 d         -17.633 203.478 120.236  0.00  0.00     0.000 A 
ATOM     34  C22  11 d         -16.520 203.031 119.513  0.00  0.00     0.001 A 
ATOM     35  C23  11 d         -15.291 203.702 119.618  0.00  0.00     0.009 A 
ENDBRANCH  29  30
ENDBRANCH  27  29
ENDBRANCH   1  27
TORSDOF 5
ENDMDL
MODEL 7
REMARK VINA RESULT:      -8.1      2.927      4.657
REMARK  5 active torsions:
REMARK  status: ('A' for Active; 'I' for Inactive)
REMARK    1  A    between atoms: C1_1  and  N7_23 
REMARK       I    between atoms: C4_5  and  N3_7 
REMARK    2  A    between atoms: N3_7  and  C5_8 
REMARK    3  A    between atoms: C8_11  and  N4_14 
REMARK    4  A    between atoms: N7_23  and  C17_24 
REMARK    5  A    between atoms: C17_24  and  C18_25 
ROOT
ATOM      1  C1   11 d         -13.332 206.861 116.906  0.00  0.00     0.176 A 
ATOM      2  C2   11 d         -12.011 207.295 117.085  0.00  0.00     0.151 A 
ATOM      3  C3   11 d         -11.407 207.159 118.312  0.00  0.00     0.183 A 
ATOM      4  N1   11 d         -12.053 206.613 119.376  0.00  0.00    -0.042 NA
ATOM      5  C4   11 d         -13.342 206.184 119.219  0.00  0.00     0.726 A 
ATOM      6  N2   11 d         -13.960 206.313 117.997  0.00  0.00    -0.043 NA
ATOM      7  N3   11 d         -13.989 205.605 120.297  0.00  0.00    -0.218 N 
ATOM      8  N5   11 d         -10.149 207.624 118.215  0.00  0.00    -0.319 N 
ATOM      9  C11  11 d         -10.001 208.066 116.934  0.00  0.00     0.212 A 
ATOM     10  N6   11 d         -11.139 207.858 116.227  0.00  0.00    -0.236 NA
ATOM     11  C12  11 d          -9.192 207.720 119.336  0.00  0.00     0.092 C 
ATOM     12  C13  11 d          -8.086 208.767 119.165  0.00  0.00     0.026 C 
ATOM     13  C14  11 d          -6.914 208.049 118.492  0.00  0.00     0.002 C 
ATOM     14  C15  11 d          -7.273 206.565 118.476  0.00  0.00     0.002 C 
ATOM     15  C16  11 d          -8.402 206.424 119.484  0.00  0.00     0.026 C 
ATOM     16  H1   11 d         -13.511 205.622 121.169  0.00  0.00     0.178 HD
ENDROOT
BRANCH   7  17
ATOM     17  C5   11 d         -15.286 205.026 120.205  0.00  0.00     0.099 C 
ATOM     18  C6   11 d         -16.351 205.857 120.955  0.00  0.00     0.027 C 
ATOM     19  C7   11 d         -16.211 205.772 122.485  0.00  0.00     0.035 C 
ATOM     20  C8   11 d         -16.179 204.311 122.988  0.00  0.00     0.183 C 
ATOM     21  C9   11 d         -15.105 203.495 122.239  0.00  0.00     0.035 C 
ATOM     22  C10  11 d         -15.298 203.571 120.719  0.00  0.00     0.027 C 
BRANCH  20  23
ATOM     23  N4   11 d         -15.961 204.254 124.463  0.00  0.00    -0.075 N 
ATOM     24  H12  11 d         -15.830 205.236 124.870  0.00  0.00     0.274 HD
ATOM     25  H13  11 d         -16.797 203.794 124.949  0.00  0.00     0.274 HD
ATOM     26  H14  11 d         -15.088 203.676 124.691  0.00  0.00     0.274 HD
ENDBRANCH  20  23
ENDBRANCH   7  17
BRANCH   1  27
ATOM     27  N7   11 d         -13.980 206.964 115.681  0.00  0.00    -0.368 N 
ATOM     28  H25  11 d         -14.467 207.806 115.492  0.00  0.00     0.161 HD
BRANCH  27  29
ATOM     29  C17  11 d         -13.950 205.909 114.734  0.00  0.00     0.160 C 
BRANCH  29  30
ATOM     30  C18  11 d         -14.700 206.077 113.421  0.00  0.00    -0.041 A 
ATOM     31  C19  11 d         -13.912 206.260 112.262  0.00  0.00     0.009 A 
ATOM     32  C20  11 d         -14.507 206.429 111.002  0.00  0.00     0.001 A 
ATOM     33  C21  11 d         -15.901 206.415 110.879  0.00  0.00     0.000 A 
ATOM     34  C22  11 d         -16.701 206.233 112.014  0.00  0.00     0.001 A 
ATOM     35  C23  11 d         -16.110 206.065 113.277  0.00  0.00     0.009 A 
ENDBRANCH  29  30
ENDBRANCH  27  29
ENDBRANCH   1  27
TORSDOF 5
ENDMDL
MODEL 8
REMARK VINA RESULT:      -8.0      1.453      1.918
REMARK  5 active torsions:
REMARK  status: ('A' for Active; 'I' for Inactive)
REMARK    1  A    between atoms: C1_1  and  N7_23 
REMARK       I    between atoms: C4_5  and  N3_7 
REMARK    2  A    between atoms: N3_7  and  C5_8 
REMARK    3  A    between atoms: C8_11  and  N4_14 
REMARK    4  A    between atoms: N7_23  and  C17_24 
REMARK    5  A    between atoms: C17_24  and  C18_25 
ROOT
ATOM      1  C1   11 d         -10.849 208.329 114.446  0.00  0.00     0.176 A 
ATOM      2  C2   11 d          -9.494 208.495 114.766  0.00  0.00     0.151 A 
ATOM      3  C3   11 d          -9.090 208.440 116.077  0.00  0.00     0.183 A 
ATOM      4  N1   11 d          -9.967 208.228 117.094  0.00  0.00    -0.042 NA
ATOM      5  C4   11 d         -11.292 208.063 116.800  0.00  0.00     0.726 A 
ATOM      6  N2   11 d         -11.713 208.115 115.491  0.00  0.00    -0.043 NA
ATOM      7  N3   11 d         -12.180 207.822 117.834  0.00  0.00    -0.218 N 
ATOM      8  N5   11 d          -7.755 208.605 116.113  0.00  0.00    -0.319 N 
ATOM      9  C11  11 d          -7.357 208.786 114.822  0.00  0.00     0.212 A 
ATOM     10  N6   11 d          -8.420 208.711 113.983  0.00  0.00    -0.236 NA
ATOM     11  C12  11 d          -6.943 208.680 117.344  0.00  0.00     0.092 C 
ATOM     12  C13  11 d          -5.611 209.425 117.205  0.00  0.00     0.026 C 
ATOM     13  C14  11 d          -4.567 208.373 116.822  0.00  0.00     0.002 C 
ATOM     14  C15  11 d          -5.258 207.018 116.952  0.00  0.00     0.002 C 
ATOM     15  C16  11 d          -6.500 207.289 117.784  0.00  0.00     0.026 C 
ATOM     16  H1   11 d         -11.819 207.881 118.759  0.00  0.00     0.178 HD
ENDROOT
BRANCH   7  17
ATOM     17  C5   11 d         -13.556 207.524 117.623  0.00  0.00     0.099 C 
ATOM     18  C6   11 d         -14.408 207.769 118.889  0.00  0.00     0.027 C 
ATOM     19  C7   11 d         -14.154 206.728 119.994  0.00  0.00     0.035 C 
ATOM     20  C8   11 d         -14.312 205.280 119.480  0.00  0.00     0.183 C 
ATOM     21  C9   11 d         -13.449 205.045 118.222  0.00  0.00     0.035 C 
ATOM     22  C10  11 d         -13.756 206.076 117.127  0.00  0.00     0.027 C 
BRANCH  20  23
ATOM     23  N4   11 d         -13.982 204.290 120.546  0.00  0.00    -0.075 N 
ATOM     24  H12  11 d         -13.943 203.297 120.148  0.00  0.00     0.274 HD
ATOM     25  H13  11 d         -13.033 204.516 120.987  0.00  0.00     0.274 HD
ATOM     26  H14  11 d         -14.720 204.313 121.322  0.00  0.00     0.274 HD
ENDBRANCH  20  23
ENDBRANCH   7  17
BRANCH   1  27
ATOM     27  N7   11 d         -11.305 208.362 113.134  0.00  0.00    -0.368 N 
ATOM     28  H25  11 d         -11.381 209.249 112.700  0.00  0.00     0.161 HD
BRANCH  27  29
ATOM     29  C17  11 d         -11.649 207.175 112.436  0.00  0.00     0.160 C 
BRANCH  29  30
ATOM     30  C18  11 d         -13.119 206.867 112.189  0.00  0.00    -0.041 A 
ATOM     31  C19  11 d         -13.418 206.098 111.042  0.00  0.00     0.009 A 
ATOM     32  C20  11 d         -14.743 205.763 110.722  0.00  0.00     0.001 A 
ATOM     33  C21  11 d         -15.791 206.189 111.545  0.00  0.00     0.000 A 
ATOM     34  C22  11 d         -15.517 206.951 112.687  0.00  0.00     0.001 A 
ATOM     35  C23  11 d         -14.193 207.289 113.011  0.00  0.00     0.009 A 
ENDBRANCH  29  30
ENDBRANCH  27  29
ENDBRANCH   1  27
TORSDOF 5
ENDMDL
MODEL 9
REMARK VINA RESULT:      -8.0      2.988      6.326
REMARK  5 active torsions:
REMARK  status: ('A' for Active; 'I' for Inactive)
REMARK    1  A    between atoms: C1_1  and  N7_23 
REMARK       I    between atoms: C4_5  and  N3_7 
REMARK    2  A    between atoms: N3_7  and  C5_8 
REMARK    3  A    between atoms: C8_11  and  N4_14 
REMARK    4  A    between atoms: N7_23  and  C17_24 
REMARK    5  A    between atoms: C17_24  and  C18_25 
ROOT
ATOM      1  C1   11 d          -8.298 209.050 115.164  0.00  0.00     0.176 A 
ATOM      2  C2   11 d          -7.704 208.706 116.386  0.00  0.00     0.151 A 
ATOM      3  C3   11 d          -8.482 208.247 117.420  0.00  0.00     0.183 A 
ATOM      4  N1   11 d          -9.830 208.112 117.302  0.00  0.00    -0.042 NA
ATOM      5  C4   11 d         -10.426 208.441 116.117  0.00  0.00     0.726 A 
ATOM      6  N2   11 d          -9.660 208.902 115.072  0.00  0.00    -0.043 NA
ATOM      7  N3   11 d         -11.795 208.278 115.991  0.00  0.00    -0.218 N 
ATOM      8  N5   11 d          -7.678 207.969 118.461  0.00  0.00    -0.319 N 
ATOM      9  C11  11 d          -6.413 208.286 118.064  0.00  0.00     0.212 A 
ATOM     10  N6   11 d          -6.417 208.732 116.783  0.00  0.00    -0.236 NA
ATOM     11  C12  11 d          -8.137 207.518 119.791  0.00  0.00     0.092 C 
ATOM     12  C13  11 d          -7.179 207.815 120.950  0.00  0.00     0.026 C 
ATOM     13  C14  11 d          -6.264 206.593 121.075  0.00  0.00     0.002 C 
ATOM     14  C15  11 d          -6.837 205.532 120.139  0.00  0.00     0.002 C 
ATOM     15  C16  11 d          -8.251 205.998 119.836  0.00  0.00     0.026 C 
ATOM     16  H1   11 d         -12.294 208.022 116.812  0.00  0.00     0.178 HD
ENDROOT
BRANCH   7  17
ATOM     17  C5   11 d         -12.492 208.485 114.766  0.00  0.00     0.099 C 
ATOM     18  C6   11 d         -13.953 208.937 114.994  0.00  0.00     0.027 C 
ATOM     19  C7   11 d         -14.851 207.812 115.540  0.00  0.00     0.035 C 
ATOM     20  C8   11 d         -14.785 206.537 114.669  0.00  0.00     0.183 C 
ATOM     21  C9   11 d         -13.323 206.090 114.457  0.00  0.00     0.035 C 
ATOM     22  C10  11 d         -12.466 207.223 113.877  0.00  0.00     0.027 C 
BRANCH  20  23
ATOM     23  N4   11 d         -15.598 205.437 115.262  0.00  0.00    -0.075 N 
ATOM     24  H12  11 d         -15.352 205.291 116.293  0.00  0.00     0.274 HD
ATOM     25  H13  11 d         -16.643 205.661 115.192  0.00  0.00     0.274 HD
ATOM     26  H14  11 d         -15.424 204.517 114.740  0.00  0.00     0.274 HD
ENDBRANCH  20  23
ENDBRANCH   7  17
BRANCH   1  27
ATOM     27  N7   11 d          -7.551 209.505 114.084  0.00  0.00    -0.368 N 
ATOM     28  H25  11 d          -7.300 210.463 114.076  0.00  0.00     0.161 HD
BRANCH  27  29
ATOM     29  C17  11 d          -7.159 208.637 113.033  0.00  0.00     0.160 C 
BRANCH  29  30
ATOM     30  C18  11 d          -5.677 208.450 112.746  0.00  0.00    -0.041 A 
ATOM     31  C19  11 d          -5.331 208.068 111.431  0.00  0.00     0.009 A 
ATOM     32  C20  11 d          -3.992 207.865 111.065  0.00  0.00     0.001 A 
ATOM     33  C21  11 d          -2.973 208.044 112.008  0.00  0.00     0.000 A 
ATOM     34  C22  11 d          -3.294 208.424 113.317  0.00  0.00     0.001 A 
ATOM     35  C23  11 d          -4.632 208.627 113.688  0.00  0.00     0.009 A 
ENDBRANCH  29  30
ENDBRANCH  27  29
ENDBRANCH   1  27
TORSDOF 5
ENDMDL
MODEL 10
REMARK VINA RESULT:      -8.0      3.310      8.846
REMARK  5 active torsions:
REMARK  status: ('A' for Active; 'I' for Inactive)
REMARK    1  A    between atoms: C1_1  and  N7_23 
REMARK       I    between atoms: C4_5  and  N3_7 
REMARK    2  A    between atoms: N3_7  and  C5_8 
REMARK    3  A    between atoms: C8_11  and  N4_14 
REMARK    4  A    between atoms: N7_23  and  C17_24 
REMARK    5  A    between atoms: C17_24  and  C18_25 
ROOT
ATOM      1  C1   11 d          -9.837 207.149 118.170  0.00  0.00     0.176 A 
ATOM      2  C2   11 d         -11.050 207.136 117.467  0.00  0.00     0.151 A 
ATOM      3  C3   11 d         -11.145 207.777 116.256  0.00  0.00     0.183 A 
ATOM      4  N1   11 d         -10.092 208.436 115.705  0.00  0.00    -0.042 NA
ATOM      5  C4   11 d          -8.901 208.458 116.376  0.00  0.00     0.726 A 
ATOM      6  N2   11 d          -8.789 207.820 117.590  0.00  0.00    -0.043 NA
ATOM      7  N3   11 d          -7.823 209.108 115.801  0.00  0.00    -0.218 N 
ATOM      8  N5   11 d         -12.392 207.598 115.782  0.00  0.00    -0.319 N 
ATOM      9  C11  11 d         -13.058 206.870 116.722  0.00  0.00     0.212 A 
ATOM     10  N6   11 d         -12.237 206.571 117.760  0.00  0.00    -0.236 NA
ATOM     11  C12  11 d         -12.918 208.192 114.537  0.00  0.00     0.092 C 
ATOM     12  C13  11 d         -14.442 208.354 114.481  0.00  0.00     0.026 C 
ATOM     13  C14  11 d         -14.988 207.066 113.859  0.00  0.00     0.002 C 
ATOM     14  C15  11 d         -13.775 206.276 113.375  0.00  0.00     0.002 C 
ATOM     15  C16  11 d         -12.638 207.284 113.345  0.00  0.00     0.026 C 
ATOM     16  H1   11 d          -7.999 209.617 114.965  0.00  0.00     0.178 HD
ENDROOT
BRANCH   7  17
ATOM     17  C5   11 d          -6.515 209.091 116.364  0.00  0.00     0.099 C 
ATOM     18  C6   11 d          -5.714 210.366 116.019  0.00  0.00     0.027 C 
ATOM     19  C7   11 d          -5.286 210.425 114.542  0.00  0.00     0.035 C 
ATOM     20  C8   11 d          -4.533 209.150 114.101  0.00  0.00     0.183 C 
ATOM     21  C9   11 d          -5.348 207.883 114.441  0.00  0.00     0.035 C 
ATOM     22  C10  11 d          -5.724 207.839 115.929  0.00  0.00     0.027 C 
BRANCH  20  23
ATOM     23  N4   11 d          -4.201 209.195 112.647  0.00  0.00    -0.075 N 
ATOM     24  H12  11 d          -4.847 208.551 112.086  0.00  0.00     0.274 HD
ATOM     25  H13  11 d          -4.305 210.191 112.269  0.00  0.00     0.274 HD
ATOM     26  H14  11 d          -3.189 208.884 112.482  0.00  0.00     0.274 HD
ENDBRANCH  20  23
ENDBRANCH   7  17
BRANCH   1  27
ATOM     27  N7   11 d          -9.688 206.503 119.391  0.00  0.00    -0.368 N 
ATOM     28  H25  11 d         -10.427 205.914 119.688  0.00  0.00     0.161 HD
BRANCH  27  29
ATOM     29  C17  11 d          -8.525 206.674 120.185  0.00  0.00     0.160 C 
BRANCH  29  30
ATOM     30  C18  11 d          -7.404 205.649 120.080  0.00  0.00    -0.041 A 
ATOM     31  C19  11 d          -7.324 204.694 121.118  0.00  0.00     0.009 A 
ATOM     32  C20  11 d          -6.325 203.709 121.118  0.00  0.00     0.001 A 
ATOM     33  C21  11 d          -5.389 203.660 120.077  0.00  0.00     0.000 A 
ATOM     34  C22  11 d          -5.452 204.597 119.038  0.00  0.00     0.001 A 
ATOM     35  C23  11 d          -6.450 205.585 119.035  0.00  0.00     0.009 A 
ENDBRANCH  29  30
ENDBRANCH  27  29
ENDBRANCH   1  27
TORSDOF 5
ENDMDL
