MODEL 1
REMARK VINA RESULT:      -9.0      0.000      0.000
REMARK  2 active torsions:
REMARK  status: ('A' for Active; 'I' for Inactive)
REMARK    1  A    between atoms: C1_1  and  C2_2 
REMARK       I    between atoms: C1_1  and  N2_9 
REMARK    2  A    between atoms: N2_9  and  C7_10 
ROOT
ATOM      1  C7   11 d         -13.234 206.193 112.490  0.00  0.00     0.093 C 
ATOM      2  C8   11 d         -13.697 205.565 111.143  0.00  0.00     0.009 C 
ATOM      3  C9   11 d         -14.186 206.650 110.147  0.00  0.00     0.011 C 
ATOM      4  C10  11 d         -15.350 207.449 110.777  0.00  0.00    -0.013 C 
ATOM      5  C11  11 d         -14.870 208.106 112.094  0.00  0.00     0.011 C 
ATOM      6  C12  11 d         -14.411 207.011 113.090  0.00  0.00     0.009 C 
ATOM      7  C13  11 d         -15.595 206.055 113.376  0.00  0.00     0.011 C 
ATOM      8  C14  11 d         -16.058 205.388 112.059  0.00  0.00    -0.013 C 
ATOM      9  C15  11 d         -14.880 204.601 111.429  0.00  0.00     0.011 C 
ATOM     10  C16  11 d         -16.525 206.488 111.074  0.00  0.00     0.009 C 
ENDROOT
BRANCH   1  11
ATOM     11  N2   11 d         -11.990 207.023 112.366  0.00  0.00    -0.351 N 
ATOM     12  C1   11 d         -11.177 207.318 113.507  0.00  0.00     0.253 C 
ATOM     13  O1   11 d         -11.529 206.858 114.651  0.00  0.00    -0.268 OA
ATOM     14  H5   11 d         -11.714 207.402 111.404  0.00  0.00     0.163 HD
BRANCH  12  15
ATOM     15  C2   11 d          -9.933 208.143 113.417  0.00  0.00     0.049 A 
ATOM     16  C3   11 d          -9.589 209.001 114.485  0.00  0.00     0.133 A 
ATOM     17  N1   11 d          -8.467 209.775 114.425  0.00  0.00    -0.272 NA
ATOM     18  C4   11 d          -7.632 209.750 113.349  0.00  0.00     0.116 A 
ATOM     19  C5   11 d          -7.915 208.910 112.267  0.00  0.00     0.020 A 
ATOM     20  C6   11 d          -9.063 208.106 112.304  0.00  0.00     0.020 A 
ENDBRANCH  12  15
ENDBRANCH   1  11
TORSDOF 2
ENDMDL
MODEL 2
REMARK VINA RESULT:      -8.8      1.257      2.029
REMARK  2 active torsions:
REMARK  status: ('A' for Active; 'I' for Inactive)
REMARK    1  A    between atoms: C1_1  and  C2_2 
REMARK       I    between atoms: C1_1  and  N2_9 
REMARK    2  A    between atoms: N2_9  and  C7_10 
ROOT
ATOM      1  C7   11 d         -13.275 206.686 111.926  0.00  0.00     0.093 C 
ATOM      2  C8   11 d         -14.489 207.645 111.750  0.00  0.00     0.009 C 
ATOM      3  C9   11 d         -15.227 207.882 113.094  0.00  0.00     0.011 C 
ATOM      4  C10  11 d         -15.708 206.530 113.670  0.00  0.00    -0.013 C 
ATOM      5  C11  11 d         -14.492 205.597 113.882  0.00  0.00     0.011 C 
ATOM      6  C12  11 d         -13.780 205.346 112.528  0.00  0.00     0.009 C 
ATOM      7  C13  11 d         -14.780 204.695 111.541  0.00  0.00     0.011 C 
ATOM      8  C14  11 d         -15.986 205.641 111.320  0.00  0.00    -0.013 C 
ATOM      9  C15  11 d         -15.490 206.997 110.756  0.00  0.00     0.011 C 
ATOM     10  C16  11 d         -16.696 205.877 112.674  0.00  0.00     0.009 C 
ENDROOT
BRANCH   1  11
ATOM     11  N2   11 d         -12.162 207.275 112.742  0.00  0.00    -0.351 N 
ATOM     12  C1   11 d         -10.977 207.787 112.122  0.00  0.00     0.253 C 
ATOM     13  O1   11 d         -10.877 207.735 110.844  0.00  0.00    -0.268 OA
ATOM     14  H5   11 d         -12.261 207.306 113.806  0.00  0.00     0.163 HD
BRANCH  12  15
ATOM     15  C2   11 d          -9.850 208.378 112.906  0.00  0.00     0.049 A 
ATOM     16  C3   11 d         -10.038 208.686 114.271  0.00  0.00     0.133 A 
ATOM     17  N1   11 d          -9.030 209.238 115.007  0.00  0.00    -0.272 NA
ATOM     18  C4   11 d          -7.809 209.509 114.468  0.00  0.00     0.116 A 
ATOM     19  C5   11 d          -7.561 209.214 113.123  0.00  0.00     0.020 A 
ATOM     20  C6   11 d          -8.580 208.647 112.344  0.00  0.00     0.020 A 
ENDBRANCH  12  15
ENDBRANCH   1  11
TORSDOF 2
ENDMDL
MODEL 3
REMARK VINA RESULT:      -8.3      3.458      4.979
REMARK  2 active torsions:
REMARK  status: ('A' for Active; 'I' for Inactive)
REMARK    1  A    between atoms: C1_1  and  C2_2 
REMARK       I    between atoms: C1_1  and  N2_9 
REMARK    2  A    between atoms: N2_9  and  C7_10 
ROOT
ATOM      1  C7   11 d         -13.926 205.696 113.218  0.00  0.00     0.093 C 
ATOM      2  C8   11 d         -13.639 207.064 112.532  0.00  0.00     0.009 C 
ATOM      3  C9   11 d         -14.927 207.921 112.409  0.00  0.00     0.011 C 
ATOM      4  C10  11 d         -15.993 207.146 111.601  0.00  0.00    -0.013 C 
ATOM      5  C11  11 d         -16.305 205.806 112.311  0.00  0.00     0.011 C 
ATOM      6  C12  11 d         -15.017 204.948 112.403  0.00  0.00     0.009 C 
ATOM      7  C13  11 d         -14.482 204.679 110.974  0.00  0.00     0.011 C 
ATOM      8  C14  11 d         -14.156 206.021 110.277  0.00  0.00    -0.013 C 
ATOM      9  C15  11 d         -13.097 206.795 111.103  0.00  0.00     0.011 C 
ATOM     10  C16  11 d         -15.449 206.866 110.180  0.00  0.00     0.009 C 
ENDROOT
BRANCH   1  11
ATOM     11  N2   11 d         -14.304 205.821 114.664  0.00  0.00    -0.351 N 
ATOM     12  C1   11 d         -13.312 205.795 115.696  0.00  0.00     0.253 C 
ATOM     13  O1   11 d         -12.079 205.664 115.365  0.00  0.00    -0.268 OA
ATOM     14  H5   11 d         -15.337 205.925 114.923  0.00  0.00     0.163 HD
BRANCH  12  15
ATOM     15  C2   11 d         -13.655 205.915 117.147  0.00  0.00     0.049 A 
ATOM     16  C3   11 d         -13.482 207.154 117.802  0.00  0.00     0.133 A 
ATOM     17  N1   11 d         -13.776 207.290 119.127  0.00  0.00    -0.272 NA
ATOM     18  C4   11 d         -14.249 206.250 119.870  0.00  0.00     0.116 A 
ATOM     19  C5   11 d         -14.451 205.003 119.271  0.00  0.00     0.020 A 
ATOM     20  C6   11 d         -14.157 204.837 117.910  0.00  0.00     0.020 A 
ENDBRANCH  12  15
ENDBRANCH   1  11
TORSDOF 2
ENDMDL
MODEL 4
REMARK VINA RESULT:      -7.9      2.131      3.380
REMARK  2 active torsions:
REMARK  status: ('A' for Active; 'I' for Inactive)
REMARK    1  A    between atoms: C1_1  and  C2_2 
REMARK       I    between atoms: C1_1  and  N2_9 
REMARK    2  A    between atoms: N2_9  and  C7_10 
ROOT
ATOM      1  C7   11 d         -12.279 207.754 113.783  0.00  0.00     0.093 C 
ATOM      2  C8   11 d         -13.354 208.304 114.766  0.00  0.00     0.009 C 
ATOM      3  C9   11 d         -13.184 207.707 116.189  0.00  0.00     0.011 C 
ATOM      4  C10  11 d         -13.278 206.165 116.121  0.00  0.00    -0.013 C 
ATOM      5  C11  11 d         -12.180 205.622 115.175  0.00  0.00     0.011 C 
ATOM      6  C12  11 d         -12.377 206.204 113.752  0.00  0.00     0.009 C 
ATOM      7  C13  11 d         -13.776 205.799 113.226  0.00  0.00     0.011 C 
ATOM      8  C14  11 d         -14.870 206.359 114.166  0.00  0.00    -0.013 C 
ATOM      9  C15  11 d         -14.757 207.903 114.237  0.00  0.00     0.011 C 
ATOM     10  C16  11 d         -14.672 205.764 115.582  0.00  0.00     0.009 C 
ENDROOT
BRANCH   1  11
ATOM     11  N2   11 d         -10.887 208.215 114.102  0.00  0.00    -0.351 N 
ATOM     12  C1   11 d          -9.910 208.396 113.071  0.00  0.00     0.253 C 
ATOM     13  O1   11 d         -10.244 208.158 111.855  0.00  0.00    -0.268 OA
ATOM     14  H5   11 d         -10.625 208.404 115.121  0.00  0.00     0.163 HD
BRANCH  12  15
ATOM     15  C2   11 d          -8.515 208.851 113.355  0.00  0.00     0.049 A 
ATOM     16  C3   11 d          -8.280 209.757 114.413  0.00  0.00     0.133 A 
ATOM     17  N1   11 d          -7.019 210.199 114.687  0.00  0.00    -0.272 NA
ATOM     18  C4   11 d          -5.939 209.787 113.966  0.00  0.00     0.116 A 
ATOM     19  C5   11 d          -6.109 208.880 112.915  0.00  0.00     0.020 A 
ATOM     20  C6   11 d          -7.396 208.411 112.612  0.00  0.00     0.020 A 
ENDBRANCH  12  15
ENDBRANCH   1  11
TORSDOF 2
ENDMDL
MODEL 5
REMARK VINA RESULT:      -7.7      3.472      4.854
REMARK  2 active torsions:
REMARK  status: ('A' for Active; 'I' for Inactive)
REMARK    1  A    between atoms: C1_1  and  C2_2 
REMARK       I    between atoms: C1_1  and  N2_9 
REMARK    2  A    between atoms: N2_9  and  C7_10 
ROOT
ATOM      1  C7   11 d         -15.372 206.828 113.282  0.00  0.00     0.093 C 
ATOM      2  C8   11 d         -16.082 205.744 112.419  0.00  0.00     0.009 C 
ATOM      3  C9   11 d         -15.084 204.658 111.935  0.00  0.00     0.011 C 
ATOM      4  C10  11 d         -13.952 205.319 111.115  0.00  0.00    -0.013 C 
ATOM      5  C11  11 d         -13.223 206.365 111.992  0.00  0.00     0.011 C 
ATOM      6  C12  11 d         -14.224 207.459 112.446  0.00  0.00     0.009 C 
ATOM      7  C13  11 d         -14.829 208.145 111.196  0.00  0.00     0.011 C 
ATOM      8  C14  11 d         -15.571 207.096 110.333  0.00  0.00    -0.013 C 
ATOM      9  C15  11 d         -16.694 206.431 111.169  0.00  0.00     0.011 C 
ATOM     10  C16  11 d         -14.563 206.015 109.875  0.00  0.00     0.009 C 
ENDROOT
BRANCH   1  11
ATOM     11  N2   11 d         -14.877 206.312 114.601  0.00  0.00    -0.351 N 
ATOM     12  C1   11 d         -14.571 207.202 115.679  0.00  0.00     0.253 C 
ATOM     13  O1   11 d         -14.728 208.463 115.503  0.00  0.00    -0.268 OA
ATOM     14  H5   11 d         -14.748 205.258 114.729  0.00  0.00     0.163 HD
BRANCH  12  15
ATOM     15  C2   11 d         -14.074 206.721 117.005  0.00  0.00     0.049 A 
ATOM     16  C3   11 d         -13.395 207.616 117.860  0.00  0.00     0.133 A 
ATOM     17  N1   11 d         -12.921 207.201 119.070  0.00  0.00    -0.272 NA
ATOM     18  C4   11 d         -13.083 205.921 119.507  0.00  0.00     0.116 A 
ATOM     19  C5   11 d         -13.759 204.994 118.708  0.00  0.00     0.020 A 
ATOM     20  C6   11 d         -14.256 205.395 117.459  0.00  0.00     0.020 A 
ENDBRANCH  12  15
ENDBRANCH   1  11
TORSDOF 2
ENDMDL
MODEL 6
REMARK VINA RESULT:      -7.5      2.427      4.143
REMARK  2 active torsions:
REMARK  status: ('A' for Active; 'I' for Inactive)
REMARK    1  A    between atoms: C1_1  and  C2_2 
REMARK       I    between atoms: C1_1  and  N2_9 
REMARK    2  A    between atoms: N2_9  and  C7_10 
ROOT
ATOM      1  C7   11 d         -11.078 208.339 113.800  0.00  0.00     0.093 C 
ATOM      2  C8   11 d         -12.061 208.462 115.001  0.00  0.00     0.009 C 
ATOM      3  C9   11 d         -11.940 207.250 115.963  0.00  0.00     0.011 C 
ATOM      4  C10  11 d         -12.221 205.941 115.189  0.00  0.00    -0.013 C 
ATOM      5  C11  11 d         -11.213 205.804 114.022  0.00  0.00     0.011 C 
ATOM      6  C12  11 d         -11.364 207.006 113.055  0.00  0.00     0.009 C 
ATOM      7  C13  11 d         -12.811 207.037 112.504  0.00  0.00     0.011 C 
ATOM      8  C14  11 d         -13.812 207.191 113.674  0.00  0.00    -0.013 C 
ATOM      9  C15  11 d         -13.512 208.499 114.450  0.00  0.00     0.011 C 
ATOM     10  C16  11 d         -13.662 205.982 114.628  0.00  0.00     0.009 C 
ENDROOT
BRANCH   1  11
ATOM     11  N2   11 d          -9.635 208.454 114.195  0.00  0.00    -0.351 N 
ATOM     12  C1   11 d          -8.699 209.174 113.386  0.00  0.00     0.253 C 
ATOM     13  O1   11 d          -9.114 209.728 112.306  0.00  0.00    -0.268 OA
ATOM     14  H5   11 d          -9.306 207.983 115.097  0.00  0.00     0.163 HD
BRANCH  12  15
ATOM     15  C2   11 d          -7.255 209.307 113.750  0.00  0.00     0.049 A 
ATOM     16  C3   11 d          -6.279 208.641 112.977  0.00  0.00     0.133 A 
ATOM     17  N1   11 d          -4.955 208.734 113.293  0.00  0.00    -0.272 NA
ATOM     18  C4   11 d          -4.518 209.469 114.353  0.00  0.00     0.116 A 
ATOM     19  C5   11 d          -5.438 210.161 115.147  0.00  0.00     0.020 A 
ATOM     20  C6   11 d          -6.805 210.081 114.844  0.00  0.00     0.020 A 
ENDBRANCH  12  15
ENDBRANCH   1  11
TORSDOF 2
ENDMDL
MODEL 7
REMARK VINA RESULT:      -7.3      2.945      8.277
REMARK  2 active torsions:
REMARK  status: ('A' for Active; 'I' for Inactive)
REMARK    1  A    between atoms: C1_1  and  C2_2 
REMARK       I    between atoms: C1_1  and  N2_9 
REMARK    2  A    between atoms: N2_9  and  C7_10 
ROOT
ATOM      1  C7   11 d          -7.276 209.158 115.269  0.00  0.00     0.093 C 
ATOM      2  C8   11 d          -6.251 210.280 114.928  0.00  0.00     0.009 C 
ATOM      3  C9   11 d          -5.053 209.728 114.111  0.00  0.00     0.011 C 
ATOM      4  C10  11 d          -4.351 208.605 114.909  0.00  0.00    -0.013 C 
ATOM      5  C11  11 d          -5.364 207.474 115.208  0.00  0.00     0.011 C 
ATOM      6  C12  11 d          -6.542 208.031 116.047  0.00  0.00     0.009 C 
ATOM      7  C13  11 d          -5.991 208.612 117.373  0.00  0.00     0.011 C 
ATOM      8  C14  11 d          -4.992 209.754 117.068  0.00  0.00    -0.013 C 
ATOM      9  C15  11 d          -5.703 210.867 116.256  0.00  0.00     0.011 C 
ATOM     10  C16  11 d          -3.815 209.186 116.239  0.00  0.00     0.009 C 
ENDROOT
BRANCH   1  11
ATOM     11  N2   11 d          -7.995 208.622 114.066  0.00  0.00    -0.351 N 
ATOM     12  C1   11 d          -9.423 208.673 113.972  0.00  0.00     0.253 C 
ATOM     13  O1   11 d         -10.088 209.190 114.940  0.00  0.00    -0.268 OA
ATOM     14  H5   11 d          -7.425 208.190 113.271  0.00  0.00     0.163 HD
BRANCH  12  15
ATOM     15  C2   11 d         -10.171 208.146 112.789  0.00  0.00     0.049 A 
ATOM     16  C3   11 d         -11.228 207.231 112.986  0.00  0.00     0.133 A 
ATOM     17  N1   11 d         -11.920 206.725 111.925  0.00  0.00    -0.272 NA
ATOM     18  C4   11 d         -11.631 207.079 110.642  0.00  0.00     0.116 A 
ATOM     19  C5   11 d         -10.602 207.992 110.387  0.00  0.00     0.020 A 
ATOM     20  C6   11 d          -9.876 208.526 111.460  0.00  0.00     0.020 A 
ENDBRANCH  12  15
ENDBRANCH   1  11
TORSDOF 2
ENDMDL
MODEL 8
REMARK VINA RESULT:      -7.2      3.752      6.475
REMARK  2 active torsions:
REMARK  status: ('A' for Active; 'I' for Inactive)
REMARK    1  A    between atoms: C1_1  and  C2_2 
REMARK       I    between atoms: C1_1  and  N2_9 
REMARK    2  A    between atoms: N2_9  and  C7_10 
ROOT
ATOM      1  C7   11 d         -14.199 206.596 116.377  0.00  0.00     0.093 C 
ATOM      2  C8   11 d         -13.502 207.664 117.269  0.00  0.00     0.009 C 
ATOM      3  C9   11 d         -11.956 207.556 117.186  0.00  0.00     0.011 C 
ATOM      4  C10  11 d         -11.509 206.141 117.620  0.00  0.00    -0.013 C 
ATOM      5  C11  11 d         -12.172 205.086 116.702  0.00  0.00     0.011 C 
ATOM      6  C12  11 d         -13.714 205.186 116.815  0.00  0.00     0.009 C 
ATOM      7  C13  11 d         -14.133 204.945 118.287  0.00  0.00     0.011 C 
ATOM      8  C14  11 d         -13.481 206.013 119.197  0.00  0.00    -0.013 C 
ATOM      9  C15  11 d         -13.925 207.428 118.744  0.00  0.00     0.011 C 
ATOM     10  C16  11 d         -11.941 205.899 119.086  0.00  0.00     0.009 C 
ENDROOT
BRANCH   1  11
ATOM     11  N2   11 d         -13.993 206.820 114.907  0.00  0.00    -0.351 N 
ATOM     12  C1   11 d         -14.983 206.426 113.951  0.00  0.00     0.253 C 
ATOM     13  O1   11 d         -16.062 205.873 114.370  0.00  0.00    -0.268 OA
ATOM     14  H5   11 d         -13.085 207.277 114.575  0.00  0.00     0.163 HD
BRANCH  12  15
ATOM     15  C2   11 d         -14.808 206.632 112.480  0.00  0.00     0.049 A 
ATOM     16  C3   11 d         -13.507 206.676 111.933  0.00  0.00     0.133 A 
ATOM     17  N1   11 d         -13.318 206.875 110.597  0.00  0.00    -0.272 NA
ATOM     18  C4   11 d         -14.362 207.033 109.737  0.00  0.00     0.116 A 
ATOM     19  C5   11 d         -15.674 206.987 110.220  0.00  0.00     0.020 A 
ATOM     20  C6   11 d         -15.896 206.784 111.590  0.00  0.00     0.020 A 
ENDBRANCH  12  15
ENDBRANCH   1  11
TORSDOF 2
ENDMDL
MODEL 9
REMARK VINA RESULT:      -7.1      2.672      8.168
REMARK  2 active torsions:
REMARK  status: ('A' for Active; 'I' for Inactive)
REMARK    1  A    between atoms: C1_1  and  C2_2 
REMARK       I    between atoms: C1_1  and  N2_9 
REMARK    2  A    between atoms: N2_9  and  C7_10 
ROOT
ATOM      1  C7   11 d          -6.946 209.262 113.632  0.00  0.00     0.093 C 
ATOM      2  C8   11 d          -5.559 208.564 113.521  0.00  0.00     0.009 C 
ATOM      3  C9   11 d          -5.397 207.445 114.585  0.00  0.00     0.011 C 
ATOM      4  C10  11 d          -5.570 208.044 116.000  0.00  0.00    -0.013 C 
ATOM      5  C11  11 d          -6.967 208.699 116.117  0.00  0.00     0.011 C 
ATOM      6  C12  11 d          -7.106 209.832 115.069  0.00  0.00     0.009 C 
ATOM      7  C13  11 d          -6.003 210.891 115.315  0.00  0.00     0.011 C 
ATOM      8  C14  11 d          -4.608 210.233 115.180  0.00  0.00    -0.013 C 
ATOM      9  C15  11 d          -4.452 209.626 113.763  0.00  0.00     0.011 C 
ATOM     10  C16  11 d          -4.475 209.111 116.237  0.00  0.00     0.009 C 
ENDROOT
BRANCH   1  11
ATOM     11  N2   11 d          -8.094 208.370 113.260  0.00  0.00    -0.351 N 
ATOM     12  C1   11 d          -9.190 208.858 112.478  0.00  0.00     0.253 C 
ATOM     13  O1   11 d          -9.178 210.082 112.094  0.00  0.00    -0.268 OA
ATOM     14  H5   11 d          -8.090 207.354 113.592  0.00  0.00     0.163 HD
BRANCH  12  15
ATOM     15  C2   11 d         -10.350 207.997 112.092  0.00  0.00     0.049 A 
ATOM     16  C3   11 d         -10.717 207.894 110.732  0.00  0.00     0.133 A 
ATOM     17  N1   11 d         -11.779 207.126 110.352  0.00  0.00    -0.272 NA
ATOM     18  C4   11 d         -12.520 206.426 111.255  0.00  0.00     0.116 A 
ATOM     19  C5   11 d         -12.195 206.480 112.614  0.00  0.00     0.020 A 
ATOM     20  C6   11 d         -11.110 207.263 113.031  0.00  0.00     0.020 A 
ENDBRANCH  12  15
ENDBRANCH   1  11
TORSDOF 2
ENDMDL
MODEL 10
REMARK VINA RESULT:      -7.0      5.346      7.184
REMARK  2 active torsions:
REMARK  status: ('A' for Active; 'I' for Inactive)
REMARK    1  A    between atoms: C1_1  and  C2_2 
REMARK       I    between atoms: C1_1  and  N2_9 
REMARK    2  A    between atoms: N2_9  and  C7_10 
ROOT
ATOM      1  C7   11 d         -13.356 206.622 116.344  0.00  0.00     0.093 C 
ATOM      2  C8   11 d         -13.577 208.094 115.888  0.00  0.00     0.009 C 
ATOM      3  C9   11 d         -14.981 208.290 115.254  0.00  0.00     0.011 C 
ATOM      4  C10  11 d         -15.144 207.339 114.046  0.00  0.00    -0.013 C 
ATOM      5  C11  11 d         -14.965 205.874 114.514  0.00  0.00     0.011 C 
ATOM      6  C12  11 d         -13.550 205.685 115.119  0.00  0.00     0.009 C 
ATOM      7  C13  11 d         -12.488 206.032 114.047  0.00  0.00     0.011 C 
ATOM      8  C14  11 d         -12.661 207.502 113.596  0.00  0.00    -0.013 C 
ATOM      9  C15  11 d         -12.510 208.445 114.817  0.00  0.00     0.011 C 
ATOM     10  C16  11 d         -14.072 207.679 112.984  0.00  0.00     0.009 C 
ENDROOT
BRANCH   1  11
ATOM     11  N2   11 d         -14.229 206.216 117.495  0.00  0.00    -0.351 N 
ATOM     12  C1   11 d         -13.770 206.320 118.847  0.00  0.00     0.253 C 
ATOM     13  O1   11 d         -12.589 206.772 119.066  0.00  0.00    -0.268 OA
ATOM     14  H5   11 d         -15.209 205.837 117.294  0.00  0.00     0.163 HD
BRANCH  12  15
ATOM     15  C2   11 d         -14.613 205.923 120.016  0.00  0.00     0.049 A 
ATOM     16  C3   11 d         -15.259 206.920 120.779  0.00  0.00     0.133 A 
ATOM     17  N1   11 d         -16.025 206.588 121.858  0.00  0.00    -0.272 NA
ATOM     18  C4   11 d         -16.204 205.293 122.242  0.00  0.00     0.116 A 
ATOM     19  C5   11 d         -15.598 204.262 121.517  0.00  0.00     0.020 A 
ATOM     20  C6   11 d         -14.806 204.577 120.404  0.00  0.00     0.020 A 
ENDBRANCH  12  15
ENDBRANCH   1  11
TORSDOF 2
ENDMDL
MODEL 11
REMARK VINA RESULT:      -6.9      2.565      3.710
REMARK  2 active torsions:
REMARK  status: ('A' for Active; 'I' for Inactive)
REMARK    1  A    between atoms: C1_1  and  C2_2 
REMARK       I    between atoms: C1_1  and  N2_9 
REMARK    2  A    between atoms: N2_9  and  C7_10 
ROOT
ATOM      1  C7   11 d         -13.359 206.662 112.750  0.00  0.00     0.093 C 
ATOM      2  C8   11 d         -14.508 207.712 112.699  0.00  0.00     0.009 C 
ATOM      3  C9   11 d         -15.806 207.168 113.355  0.00  0.00     0.011 C 
ATOM      4  C10  11 d         -16.249 205.873 112.637  0.00  0.00    -0.013 C 
ATOM      5  C11  11 d         -15.119 204.819 112.728  0.00  0.00     0.011 C 
ATOM      6  C12  11 d         -13.838 205.363 112.046  0.00  0.00     0.009 C 
ATOM      7  C13  11 d         -14.148 205.680 110.561  0.00  0.00     0.011 C 
ATOM      8  C14  11 d         -15.266 206.746 110.477  0.00  0.00    -0.013 C 
ATOM      9  C15  11 d         -14.816 208.034 111.212  0.00  0.00     0.011 C 
ATOM     10  C16  11 d         -16.544 206.190 111.152  0.00  0.00     0.009 C 
ENDROOT
BRANCH   1  11
ATOM     11  N2   11 d         -12.862 206.388 114.139  0.00  0.00    -0.351 N 
ATOM     12  C1   11 d         -11.974 207.295 114.802  0.00  0.00     0.253 C 
ATOM     13  O1   11 d         -11.604 208.358 114.186  0.00  0.00    -0.268 OA
ATOM     14  H5   11 d         -13.178 205.495 114.635  0.00  0.00     0.163 HD
BRANCH  12  15
ATOM     15  C2   11 d         -11.459 207.051 116.184  0.00  0.00     0.049 A 
ATOM     16  C3   11 d         -12.090 206.087 117.001  0.00  0.00     0.133 A 
ATOM     17  N1   11 d         -11.649 205.852 118.271  0.00  0.00    -0.272 NA
ATOM     18  C4   11 d         -10.588 206.524 118.801  0.00  0.00     0.116 A 
ATOM     19  C5   11 d          -9.916 207.481 118.033  0.00  0.00     0.020 A 
ATOM     20  C6   11 d         -10.350 207.741 116.725  0.00  0.00     0.020 A 
ENDBRANCH  12  15
ENDBRANCH   1  11
TORSDOF 2
ENDMDL
MODEL 12
REMARK VINA RESULT:      -6.3      3.525      5.025
REMARK  2 active torsions:
REMARK  status: ('A' for Active; 'I' for Inactive)
REMARK    1  A    between atoms: C1_1  and  C2_2 
REMARK       I    between atoms: C1_1  and  N2_9 
REMARK    2  A    between atoms: N2_9  and  C7_10 
ROOT
ATOM      1  C7   11 d         -11.885 208.297 115.406  0.00  0.00     0.093 C 
ATOM      2  C8   11 d         -13.432 208.287 115.579  0.00  0.00     0.009 C 
ATOM      3  C9   11 d         -13.952 206.881 115.982  0.00  0.00     0.011 C 
ATOM      4  C10  11 d         -13.540 205.846 114.909  0.00  0.00    -0.013 C 
ATOM      5  C11  11 d         -11.998 205.831 114.773  0.00  0.00     0.011 C 
ATOM      6  C12  11 d         -11.495 207.233 114.344  0.00  0.00     0.009 C 
ATOM      7  C13  11 d         -12.142 207.613 112.989  0.00  0.00     0.011 C 
ATOM      8  C14  11 d         -13.682 207.644 113.137  0.00  0.00    -0.013 C 
ATOM      9  C15  11 d         -14.083 208.673 114.224  0.00  0.00     0.011 C 
ATOM     10  C16  11 d         -14.177 206.238 113.555  0.00  0.00     0.009 C 
ENDROOT
BRANCH   1  11
ATOM     11  N2   11 d         -11.139 208.094 116.693  0.00  0.00    -0.351 N 
ATOM     12  C1   11 d          -9.728 208.317 116.776  0.00  0.00     0.253 C 
ATOM     13  O1   11 d          -9.100 208.698 115.724  0.00  0.00    -0.268 OA
ATOM     14  H5   11 d         -11.678 207.771 117.558  0.00  0.00     0.163 HD
BRANCH  12  15
ATOM     15  C2   11 d          -8.954 208.122 118.041  0.00  0.00     0.049 A 
ATOM     16  C3   11 d          -7.771 207.352 118.021  0.00  0.00     0.133 A 
ATOM     17  N1   11 d          -7.052 207.147 119.162  0.00  0.00    -0.272 NA
ATOM     18  C4   11 d          -7.434 207.676 120.358  0.00  0.00     0.116 A 
ATOM     19  C5   11 d          -8.591 208.458 120.435  0.00  0.00     0.020 A 
ATOM     20  C6   11 d          -9.348 208.683 119.277  0.00  0.00     0.020 A 
ENDBRANCH  12  15
ENDBRANCH   1  11
TORSDOF 2
ENDMDL
MODEL 13
REMARK VINA RESULT:      -6.3      3.420      5.269
REMARK  2 active torsions:
REMARK  status: ('A' for Active; 'I' for Inactive)
REMARK    1  A    between atoms: C1_1  and  C2_2 
REMARK       I    between atoms: C1_1  and  N2_9 
REMARK    2  A    between atoms: N2_9  and  C7_10 
ROOT
ATOM      1  C7   11 d         -11.665 206.456 115.966  0.00  0.00     0.093 C 
ATOM      2  C8   11 d         -12.353 205.242 116.658  0.00  0.00     0.009 C 
ATOM      3  C9   11 d         -13.900 205.361 116.609  0.00  0.00     0.011 C 
ATOM      4  C10  11 d         -14.344 206.673 117.295  0.00  0.00    -0.013 C 
ATOM      5  C11  11 d         -13.690 207.878 116.577  0.00  0.00     0.011 C 
ATOM      6  C12  11 d         -12.146 207.762 116.656  0.00  0.00     0.009 C 
ATOM      7  C13  11 d         -11.714 207.735 118.143  0.00  0.00     0.011 C 
ATOM      8  C14  11 d         -12.357 206.518 118.852  0.00  0.00    -0.013 C 
ATOM      9  C15  11 d         -11.917 205.210 118.147  0.00  0.00     0.011 C 
ATOM     10  C16  11 d         -13.898 206.648 118.777  0.00  0.00     0.009 C 
ENDROOT
BRANCH   1  11
ATOM     11  N2   11 d         -11.884 206.500 114.483  0.00  0.00    -0.351 N 
ATOM     12  C1   11 d         -11.124 207.379 113.646  0.00  0.00     0.253 C 
ATOM     13  O1   11 d         -10.241 208.137 114.187  0.00  0.00    -0.268 OA
ATOM     14  H5   11 d         -12.627 205.865 114.049  0.00  0.00     0.163 HD
BRANCH  12  15
ATOM     15  C2   11 d         -11.318 207.449 112.165  0.00  0.00     0.049 A 
ATOM     16  C3   11 d         -12.494 206.917 111.592  0.00  0.00     0.133 A 
ATOM     17  N1   11 d         -12.693 206.956 110.243  0.00  0.00    -0.272 NA
ATOM     18  C4   11 d         -11.780 207.510 109.397  0.00  0.00     0.116 A 
ATOM     19  C5   11 d         -10.602 208.065 109.909  0.00  0.00     0.020 A 
ATOM     20  C6   11 d         -10.374 208.036 111.292  0.00  0.00     0.020 A 
ENDBRANCH  12  15
ENDBRANCH   1  11
TORSDOF 2
ENDMDL
MODEL 14
REMARK VINA RESULT:      -6.2      3.883      8.941
REMARK  2 active torsions:
REMARK  status: ('A' for Active; 'I' for Inactive)
REMARK    1  A    between atoms: C1_1  and  C2_2 
REMARK       I    between atoms: C1_1  and  N2_9 
REMARK    2  A    between atoms: N2_9  and  C7_10 
ROOT
ATOM      1  C7   11 d          -6.445 209.107 116.150  0.00  0.00     0.093 C 
ATOM      2  C8   11 d          -5.259 208.292 115.554  0.00  0.00     0.009 C 
ATOM      3  C9   11 d          -5.157 206.883 116.195  0.00  0.00     0.011 C 
ATOM      4  C10  11 d          -4.980 207.018 117.725  0.00  0.00    -0.013 C 
ATOM      5  C11  11 d          -6.182 207.792 118.317  0.00  0.00     0.011 C 
ATOM      6  C12  11 d          -6.257 209.207 117.689  0.00  0.00     0.009 C 
ATOM      7  C13  11 d          -4.941 209.966 117.988  0.00  0.00     0.011 C 
ATOM      8  C14  11 d          -3.744 209.197 117.378  0.00  0.00    -0.013 C 
ATOM      9  C15  11 d          -3.940 209.055 115.847  0.00  0.00     0.011 C 
ATOM     10  C16  11 d          -3.671 207.789 118.018  0.00  0.00     0.009 C 
ENDROOT
BRANCH   1  11
ATOM     11  N2   11 d          -7.792 208.551 115.792  0.00  0.00    -0.351 N 
ATOM     12  C1   11 d          -8.588 209.142 114.759  0.00  0.00     0.253 C 
ATOM     13  O1   11 d          -8.130 210.165 114.135  0.00  0.00    -0.268 OA
ATOM     14  H5   11 d          -8.159 207.700 116.325  0.00  0.00     0.163 HD
BRANCH  12  15
ATOM     15  C2   11 d          -9.934 208.614 114.379  0.00  0.00     0.049 A 
ATOM     16  C3   11 d         -10.110 208.001 113.119  0.00  0.00     0.133 A 
ATOM     17  N1   11 d         -11.330 207.521 112.740  0.00  0.00    -0.272 NA
ATOM     18  C4   11 d         -12.420 207.604 113.553  0.00  0.00     0.116 A 
ATOM     19  C5   11 d         -12.302 208.190 114.818  0.00  0.00     0.020 A 
ATOM     20  C6   11 d         -11.060 208.691 115.230  0.00  0.00     0.020 A 
ENDBRANCH  12  15
ENDBRANCH   1  11
TORSDOF 2
ENDMDL
