MODEL 1
REMARK VINA RESULT:      -9.8      0.000      0.000
REMARK  5 active torsions:
REMARK  status: ('A' for Active; 'I' for Inactive)
REMARK    1  A    between atoms: N1_9  and  C15_18 
REMARK    2  A    between atoms: C15_18  and  C16_19 
REMARK    3  A    between atoms: C16_19  and  O2_21 
REMARK    4  A    between atoms: O2_21  and  C17_22 
REMARK    5  A    between atoms: C18_23  and  C19_24 
ROOT
ATOM      1  C1   11 d         -11.938 207.147 114.479  0.00  0.00     0.121 A 
ATOM      2  C2   11 d         -12.303 206.918 115.900  0.00  0.00     0.009 A 
ATOM      3  C3   11 d         -13.521 207.414 116.400  0.00  0.00     0.018 A 
ATOM      4  C4   11 d         -13.880 207.191 117.739  0.00  0.00     0.043 A 
ATOM      5  C5   11 d         -13.027 206.468 118.583  0.00  0.00     0.116 A 
ATOM      6  F1   11 d         -13.378 206.252 119.884  0.00  0.00    -0.206 F 
ATOM      7  C6   11 d         -11.816 205.961 118.090  0.00  0.00     0.043 A 
ATOM      8  C7   11 d         -11.456 206.179 116.751  0.00  0.00     0.018 A 
ATOM      9  N1   11 d         -10.838 207.828 114.030  0.00  0.00    -0.321 N 
ATOM     10  C8   11 d         -10.886 207.794 112.666  0.00  0.00     0.063 A 
ATOM     11  C9   11 d         -12.026 207.090 112.303  0.00  0.00     0.062 A 
ATOM     12  N2   11 d         -12.672 206.707 113.422  0.00  0.00    -0.335 N 
ATOM     13  C10  11 d         -13.859 205.847 113.482  0.00  0.00     0.158 C 
ATOM     14  C11  11 d         -12.370 206.879 110.958  0.00  0.00     0.032 A 
ATOM     15  C12  11 d         -11.532 207.409 109.962  0.00  0.00     0.002 A 
ATOM     16  C13  11 d         -10.382 208.141 110.318  0.00  0.00     0.002 A 
ATOM     17  C14  11 d         -10.052 208.343 111.673  0.00  0.00     0.032 A 
ENDROOT
BRANCH   9  18
ATOM     18  C15  11 d          -9.859 208.459 114.951  0.00  0.00     0.241 C 
BRANCH  18  19
ATOM     19  C16  11 d          -8.699 209.270 114.441  0.00  0.00     0.277 C 
ATOM     20  O1   11 d          -8.907 210.343 113.817  0.00  0.00    -0.263 OA
BRANCH  19  21
ATOM     21  O2   11 d          -7.372 208.773 114.586  0.00  0.00    -0.314 OA
BRANCH  21  22
ATOM     22  C17  11 d          -6.345 209.768 114.303  0.00  0.00     0.136 C 
ATOM     23  C18  11 d          -5.049 209.048 113.826  0.00  0.00     0.018 C 
ATOM     24  C22  11 d          -4.369 208.335 115.023  0.00  0.00     0.008 C 
ATOM     25  C23  11 d          -4.102 209.278 116.204  0.00  0.00     0.005 C 
ATOM     26  C24  11 d          -5.368 209.995 116.702  0.00  0.00    -0.016 C 
ATOM     27  C25  11 d          -6.096 210.677 115.526  0.00  0.00     0.037 C 
ATOM     28  C26  11 d          -6.278 209.085 117.540  0.00  0.00     0.010 C 
BRANCH  23  29
ATOM     29  C19  11 d          -5.295 208.088 112.610  0.00  0.00    -0.016 C 
ATOM     30  C20  11 d          -4.060 207.912 111.705  0.00  0.00     0.010 C 
ATOM     31  C21  11 d          -6.479 208.535 111.730  0.00  0.00     0.010 C 
ENDBRANCH  23  29
ENDBRANCH  21  22
ENDBRANCH  19  21
ENDBRANCH  18  19
ENDBRANCH   9  18
TORSDOF 5
ENDMDL
MODEL 2
REMARK VINA RESULT:      -9.7      2.523      7.205
REMARK  5 active torsions:
REMARK  status: ('A' for Active; 'I' for Inactive)
REMARK    1  A    between atoms: N1_9  and  C15_18 
REMARK    2  A    between atoms: C15_18  and  C16_19 
REMARK    3  A    between atoms: C16_19  and  O2_21 
REMARK    4  A    between atoms: O2_21  and  C17_22 
REMARK    5  A    between atoms: C18_23  and  C19_24 
ROOT
ATOM      1  C1   11 d          -8.506 208.612 113.135  0.00  0.00     0.121 A 
ATOM      2  C2   11 d          -9.631 208.153 112.282  0.00  0.00     0.009 A 
ATOM      3  C3   11 d          -9.888 208.793 111.055  0.00  0.00     0.018 A 
ATOM      4  C4   11 d         -10.942 208.358 110.236  0.00  0.00     0.043 A 
ATOM      5  C5   11 d         -11.741 207.278 110.635  0.00  0.00     0.116 A 
ATOM      6  F1   11 d         -12.764 206.857 109.836  0.00  0.00    -0.206 F 
ATOM      7  C6   11 d         -11.485 206.627 111.850  0.00  0.00     0.043 A 
ATOM      8  C7   11 d         -10.429 207.058 112.670  0.00  0.00     0.018 A 
ATOM      9  N1   11 d          -8.610 209.097 114.411  0.00  0.00    -0.321 N 
ATOM     10  C8   11 d          -7.342 209.393 114.822  0.00  0.00     0.063 A 
ATOM     11  C9   11 d          -6.479 209.082 113.780  0.00  0.00     0.062 A 
ATOM     12  N2   11 d          -7.203 208.614 112.744  0.00  0.00    -0.335 N 
ATOM     13  C10  11 d          -6.667 208.071 111.491  0.00  0.00     0.158 C 
ATOM     14  C11  11 d          -5.092 209.276 113.883  0.00  0.00     0.032 A 
ATOM     15  C12  11 d          -4.577 209.808 115.078  0.00  0.00     0.002 A 
ATOM     16  C13  11 d          -5.445 210.144 116.136  0.00  0.00     0.002 A 
ATOM     17  C14  11 d          -6.834 209.943 116.015  0.00  0.00     0.032 A 
ENDROOT
BRANCH   9  18
ATOM     18  C15  11 d          -9.914 209.248 115.105  0.00  0.00     0.241 C 
BRANCH  18  19
ATOM     19  C16  11 d         -10.318 208.347 116.239  0.00  0.00     0.277 C 
ATOM     20  O1   11 d          -9.450 207.925 117.048  0.00  0.00    -0.263 OA
BRANCH  19  21
ATOM     21  O2   11 d         -11.667 207.901 116.342  0.00  0.00    -0.314 OA
BRANCH  21  22
ATOM     22  C17  11 d         -11.949 206.714 115.546  0.00  0.00     0.136 C 
ATOM     23  C18  11 d         -13.427 206.762 115.055  0.00  0.00     0.018 C 
ATOM     24  C22  11 d         -14.387 206.489 116.241  0.00  0.00     0.008 C 
ATOM     25  C23  11 d         -14.067 205.180 116.977  0.00  0.00     0.005 C 
ATOM     26  C24  11 d         -12.616 205.110 117.480  0.00  0.00    -0.016 C 
ATOM     27  C25  11 d         -11.634 205.424 116.335  0.00  0.00     0.037 C 
ATOM     28  C26  11 d         -12.380 205.960 118.739  0.00  0.00     0.010 C 
BRANCH  23  29
ATOM     29  C19  11 d         -13.772 208.086 114.289  0.00  0.00    -0.016 C 
ATOM     30  C20  11 d         -14.562 209.101 115.139  0.00  0.00     0.010 C 
ATOM     31  C21  11 d         -14.559 207.832 112.987  0.00  0.00     0.010 C 
ENDBRANCH  23  29
ENDBRANCH  21  22
ENDBRANCH  19  21
ENDBRANCH  18  19
ENDBRANCH   9  18
TORSDOF 5
ENDMDL
MODEL 3
REMARK VINA RESULT:      -9.7      2.650      6.676
REMARK  5 active torsions:
REMARK  status: ('A' for Active; 'I' for Inactive)
REMARK    1  A    between atoms: N1_9  and  C15_18 
REMARK    2  A    between atoms: C15_18  and  C16_19 
REMARK    3  A    between atoms: C16_19  and  O2_21 
REMARK    4  A    between atoms: O2_21  and  C17_22 
REMARK    5  A    between atoms: C18_23  and  C19_24 
ROOT
ATOM      1  C1   11 d         -11.291 207.645 117.332  0.00  0.00     0.121 A 
ATOM      2  C2   11 d         -12.382 207.088 118.170  0.00  0.00     0.009 A 
ATOM      3  C3   11 d         -12.323 205.748 118.597  0.00  0.00     0.018 A 
ATOM      4  C4   11 d         -13.344 205.215 119.401  0.00  0.00     0.043 A 
ATOM      5  C5   11 d         -14.425 206.019 119.786  0.00  0.00     0.116 A 
ATOM      6  F1   11 d         -15.415 205.499 120.568  0.00  0.00    -0.206 F 
ATOM      7  C6   11 d         -14.486 207.358 119.375  0.00  0.00     0.043 A 
ATOM      8  C7   11 d         -13.465 207.894 118.574  0.00  0.00     0.018 A 
ATOM      9  N1   11 d         -11.427 208.153 116.067  0.00  0.00    -0.321 N 
ATOM     10  C8   11 d         -10.186 208.559 115.672  0.00  0.00     0.063 A 
ATOM     11  C9   11 d          -9.305 208.289 116.710  0.00  0.00     0.062 A 
ATOM     12  N2   11 d          -9.990 207.717 117.720  0.00  0.00    -0.335 N 
ATOM     13  C10  11 d          -9.455 207.378 119.043  0.00  0.00     0.158 C 
ATOM     14  C11  11 d          -7.936 208.587 116.618  0.00  0.00     0.032 A 
ATOM     15  C12  11 d          -7.456 209.168 115.431  0.00  0.00     0.002 A 
ATOM     16  C13  11 d          -8.337 209.431 114.364  0.00  0.00     0.002 A 
ATOM     17  C14  11 d          -9.707 209.125 114.474  0.00  0.00     0.032 A 
ENDROOT
BRANCH   9  18
ATOM     18  C15  11 d         -12.730 208.181 115.354  0.00  0.00     0.241 C 
BRANCH  18  19
ATOM     19  C16  11 d         -13.265 206.975 114.633  0.00  0.00     0.277 C 
ATOM     20  O1   11 d         -13.157 205.832 115.150  0.00  0.00    -0.263 OA
BRANCH  19  21
ATOM     21  O2   11 d         -13.813 207.118 113.326  0.00  0.00    -0.314 OA
BRANCH  21  22
ATOM     22  C17  11 d         -13.483 206.015 112.433  0.00  0.00     0.136 C 
ATOM     23  C18  11 d         -12.773 206.574 111.164  0.00  0.00     0.018 C 
ATOM     24  C22  11 d         -13.799 207.311 110.265  0.00  0.00     0.008 C 
ATOM     25  C23  11 d         -15.012 206.442 109.909  0.00  0.00     0.005 C 
ATOM     26  C24  11 d         -15.738 205.884 111.145  0.00  0.00    -0.016 C 
ATOM     27  C25  11 d         -14.738 205.184 112.085  0.00  0.00     0.037 C 
ATOM     28  C26  11 d         -16.608 206.936 111.851  0.00  0.00     0.010 C 
BRANCH  23  29
ATOM     29  C19  11 d         -11.521 207.456 111.504  0.00  0.00    -0.016 C 
ATOM     30  C20  11 d         -10.735 207.913 110.259  0.00  0.00     0.010 C 
ATOM     31  C21  11 d         -10.541 206.752 112.463  0.00  0.00     0.010 C 
ENDBRANCH  23  29
ENDBRANCH  21  22
ENDBRANCH  19  21
ENDBRANCH  18  19
ENDBRANCH   9  18
TORSDOF 5
ENDMDL
MODEL 4
REMARK VINA RESULT:      -9.6      1.022      1.394
REMARK  5 active torsions:
REMARK  status: ('A' for Active; 'I' for Inactive)
REMARK    1  A    between atoms: N1_9  and  C15_18 
REMARK    2  A    between atoms: C15_18  and  C16_19 
REMARK    3  A    between atoms: C16_19  and  O2_21 
REMARK    4  A    between atoms: O2_21  and  C17_22 
REMARK    5  A    between atoms: C18_23  and  C19_24 
ROOT
ATOM      1  C1   11 d         -11.753 207.314 114.608  0.00  0.00     0.121 A 
ATOM      2  C2   11 d         -12.180 207.073 116.009  0.00  0.00     0.009 A 
ATOM      3  C3   11 d         -13.472 207.446 116.422  0.00  0.00     0.018 A 
ATOM      4  C4   11 d         -13.890 207.211 117.742  0.00  0.00     0.043 A 
ATOM      5  C5   11 d         -13.021 206.597 118.654  0.00  0.00     0.116 A 
ATOM      6  F1   11 d         -13.430 206.369 119.936  0.00  0.00    -0.206 F 
ATOM      7  C6   11 d         -11.735 206.212 118.248  0.00  0.00     0.043 A 
ATOM      8  C7   11 d         -11.317 206.443 116.928  0.00  0.00     0.018 A 
ATOM      9  N1   11 d         -10.703 208.098 114.211  0.00  0.00    -0.321 N 
ATOM     10  C8   11 d         -10.661 208.035 112.848  0.00  0.00     0.063 A 
ATOM     11  C9   11 d         -11.696 207.208 112.433  0.00  0.00     0.062 A 
ATOM     12  N2   11 d         -12.368 206.779 113.520  0.00  0.00    -0.335 N 
ATOM     13  C10  11 d         -13.461 205.801 113.528  0.00  0.00     0.158 C 
ATOM     14  C11  11 d         -11.930 206.938 111.075  0.00  0.00     0.032 A 
ATOM     15  C12  11 d         -11.091 207.536 110.119  0.00  0.00     0.002 A 
ATOM     16  C13  11 d         -10.048 208.391 110.526  0.00  0.00     0.002 A 
ATOM     17  C14  11 d          -9.828 208.651 111.893  0.00  0.00     0.032 A 
ENDROOT
BRANCH   9  18
ATOM     18  C15  11 d          -9.855 208.846 115.174  0.00  0.00     0.241 C 
BRANCH  18  19
ATOM     19  C16  11 d          -8.419 209.178 114.874  0.00  0.00     0.277 C 
ATOM     20  O1   11 d          -8.135 210.223 114.232  0.00  0.00    -0.263 OA
BRANCH  19  21
ATOM     21  O2   11 d          -7.391 208.263 115.240  0.00  0.00    -0.314 OA
BRANCH  21  22
ATOM     22  C17  11 d          -6.231 208.903 115.848  0.00  0.00     0.136 C 
ATOM     23  C18  11 d          -4.977 208.003 115.638  0.00  0.00     0.018 C 
ATOM     24  C22  11 d          -5.066 206.752 116.550  0.00  0.00     0.008 C 
ATOM     25  C23  11 d          -5.280 207.106 118.028  0.00  0.00     0.005 C 
ATOM     26  C24  11 d          -6.518 207.987 118.264  0.00  0.00    -0.016 C 
ATOM     27  C25  11 d          -6.486 209.219 117.338  0.00  0.00     0.037 C 
ATOM     28  C26  11 d          -7.834 207.198 118.188  0.00  0.00     0.010 C 
BRANCH  23  29
ATOM     29  C19  11 d          -4.732 207.639 114.132  0.00  0.00    -0.016 C 
ATOM     30  C20  11 d          -3.413 206.879 113.891  0.00  0.00     0.010 C 
ATOM     31  C21  11 d          -4.753 208.875 113.211  0.00  0.00     0.010 C 
ENDBRANCH  23  29
ENDBRANCH  21  22
ENDBRANCH  19  21
ENDBRANCH  18  19
ENDBRANCH   9  18
TORSDOF 5
ENDMDL
MODEL 5
REMARK VINA RESULT:      -9.6      2.178      6.745
REMARK  5 active torsions:
REMARK  status: ('A' for Active; 'I' for Inactive)
REMARK    1  A    between atoms: N1_9  and  C15_18 
REMARK    2  A    between atoms: C15_18  and  C16_19 
REMARK    3  A    between atoms: C16_19  and  O2_21 
REMARK    4  A    between atoms: O2_21  and  C17_22 
REMARK    5  A    between atoms: C18_23  and  C19_24 
ROOT
ATOM      1  C1   11 d         -10.000 208.004 116.753  0.00  0.00     0.121 A 
ATOM      2  C2   11 d         -11.157 207.421 117.477  0.00  0.00     0.009 A 
ATOM      3  C3   11 d         -11.125 206.072 117.879  0.00  0.00     0.018 A 
ATOM      4  C4   11 d         -12.209 205.515 118.576  0.00  0.00     0.043 A 
ATOM      5  C5   11 d         -13.328 206.302 118.879  0.00  0.00     0.116 A 
ATOM      6  F1   11 d         -14.380 205.758 119.556  0.00  0.00    -0.206 F 
ATOM      7  C6   11 d         -13.363 207.650 118.492  0.00  0.00     0.043 A 
ATOM      8  C7   11 d         -12.279 208.210 117.798  0.00  0.00     0.018 A 
ATOM      9  N1   11 d         -10.025 208.538 115.493  0.00  0.00    -0.321 N 
ATOM     10  C8   11 d          -8.757 208.962 115.221  0.00  0.00     0.063 A 
ATOM     11  C9   11 d          -7.971 208.675 116.329  0.00  0.00     0.062 A 
ATOM     12  N2   11 d          -8.740 208.077 117.260  0.00  0.00    -0.335 N 
ATOM     13  C10  11 d          -8.323 207.712 118.618  0.00  0.00     0.158 C 
ATOM     14  C11  11 d          -6.602 208.985 116.367  0.00  0.00     0.032 A 
ATOM     15  C12  11 d          -6.022 209.595 115.241  0.00  0.00     0.002 A 
ATOM     16  C13  11 d          -6.805 209.875 114.104  0.00  0.00     0.002 A 
ATOM     17  C14  11 d          -8.177 209.557 114.084  0.00  0.00     0.032 A 
ENDROOT
BRANCH   9  18
ATOM     18  C15  11 d         -11.259 208.573 114.665  0.00  0.00     0.241 C 
BRANCH  18  19
ATOM     19  C16  11 d         -11.452 207.653 113.492  0.00  0.00     0.277 C 
ATOM     20  O1   11 d         -10.459 207.275 112.817  0.00  0.00    -0.263 OA
BRANCH  19  21
ATOM     21  O2   11 d         -12.769 207.282 113.094  0.00  0.00    -0.314 OA
BRANCH  21  22
ATOM     22  C17  11 d         -13.166 205.959 113.556  0.00  0.00     0.136 C 
ATOM     23  C18  11 d         -14.307 205.416 112.646  0.00  0.00     0.018 C 
ATOM     24  C22  11 d         -15.625 206.178 112.940  0.00  0.00     0.008 C 
ATOM     25  C23  11 d         -16.011 206.150 114.425  0.00  0.00     0.005 C 
ATOM     26  C24  11 d         -14.904 206.690 115.346  0.00  0.00    -0.016 C 
ATOM     27  C25  11 d         -13.566 205.985 115.047  0.00  0.00     0.037 C 
ATOM     28  C26  11 d         -14.806 208.223 115.326  0.00  0.00     0.010 C 
BRANCH  23  29
ATOM     29  C19  11 d         -13.930 205.424 111.123  0.00  0.00    -0.016 C 
ATOM     30  C20  11 d         -14.688 206.490 110.307  0.00  0.00     0.010 C 
ATOM     31  C21  11 d         -14.150 204.055 110.450  0.00  0.00     0.010 C 
ENDBRANCH  23  29
ENDBRANCH  21  22
ENDBRANCH  19  21
ENDBRANCH  18  19
ENDBRANCH   9  18
TORSDOF 5
ENDMDL
MODEL 6
REMARK VINA RESULT:      -9.3      2.288      7.145
REMARK  5 active torsions:
REMARK  status: ('A' for Active; 'I' for Inactive)
REMARK    1  A    between atoms: N1_9  and  C15_18 
REMARK    2  A    between atoms: C15_18  and  C16_19 
REMARK    3  A    between atoms: C16_19  and  O2_21 
REMARK    4  A    between atoms: O2_21  and  C17_22 
REMARK    5  A    between atoms: C18_23  and  C19_24 
ROOT
ATOM      1  C1   11 d         -10.185 207.969 116.472  0.00  0.00     0.121 A 
ATOM      2  C2   11 d         -11.210 207.404 117.386  0.00  0.00     0.009 A 
ATOM      3  C3   11 d         -11.003 206.145 117.979  0.00  0.00     0.018 A 
ATOM      4  C4   11 d         -11.960 205.608 118.854  0.00  0.00     0.043 A 
ATOM      5  C5   11 d         -13.127 206.328 119.145  0.00  0.00     0.116 A 
ATOM      6  F1   11 d         -14.055 205.804 119.997  0.00  0.00    -0.206 F 
ATOM      7  C6   11 d         -13.336 207.588 118.567  0.00  0.00     0.043 A 
ATOM      8  C7   11 d         -12.378 208.129 117.694  0.00  0.00     0.018 A 
ATOM      9  N1   11 d         -10.372 208.293 115.155  0.00  0.00    -0.321 N 
ATOM     10  C8   11 d          -9.183 208.783 114.699  0.00  0.00     0.063 A 
ATOM     11  C9   11 d          -8.281 208.747 115.754  0.00  0.00     0.062 A 
ATOM     12  N2   11 d          -8.902 208.235 116.835  0.00  0.00    -0.335 N 
ATOM     13  C10  11 d          -8.338 208.129 118.185  0.00  0.00     0.158 C 
ATOM     14  C11  11 d          -6.954 209.182 115.610  0.00  0.00     0.032 A 
ATOM     15  C12  11 d          -6.537 209.657 114.355  0.00  0.00     0.002 A 
ATOM     16  C13  11 d          -7.438 209.682 113.272  0.00  0.00     0.002 A 
ATOM     17  C14  11 d          -8.766 209.241 113.434  0.00  0.00     0.032 A 
ENDROOT
BRANCH   9  18
ATOM     18  C15  11 d         -11.667 208.084 114.457  0.00  0.00     0.241 C 
BRANCH  18  19
ATOM     19  C16  11 d         -11.886 206.927 113.522  0.00  0.00     0.277 C 
ATOM     20  O1   11 d         -10.922 206.461 112.860  0.00  0.00    -0.263 OA
BRANCH  19  21
ATOM     21  O2   11 d         -13.202 206.420 113.320  0.00  0.00    -0.314 OA
BRANCH  21  22
ATOM     22  C17  11 d         -14.092 207.361 112.653  0.00  0.00     0.136 C 
ATOM     23  C18  11 d         -15.484 207.336 113.351  0.00  0.00     0.018 C 
ATOM     24  C22  11 d         -16.225 206.019 113.005  0.00  0.00     0.008 C 
ATOM     25  C23  11 d         -16.335 205.776 111.494  0.00  0.00     0.005 C 
ATOM     26  C24  11 d         -14.972 205.786 110.781  0.00  0.00    -0.016 C 
ATOM     27  C25  11 d         -14.187 207.063 111.141  0.00  0.00     0.037 C 
ATOM     28  C26  11 d         -14.173 204.493 111.005  0.00  0.00     0.010 C 
BRANCH  23  29
ATOM     29  C19  11 d         -15.398 207.595 114.896  0.00  0.00    -0.016 C 
ATOM     30  C20  11 d         -14.642 208.887 115.261  0.00  0.00     0.010 C 
ATOM     31  C21  11 d         -14.750 206.424 115.659  0.00  0.00     0.010 C 
ENDBRANCH  23  29
ENDBRANCH  21  22
ENDBRANCH  19  21
ENDBRANCH  18  19
ENDBRANCH   9  18
TORSDOF 5
ENDMDL
MODEL 7
REMARK VINA RESULT:      -9.3      2.956      7.803
REMARK  5 active torsions:
REMARK  status: ('A' for Active; 'I' for Inactive)
REMARK    1  A    between atoms: N1_9  and  C15_18 
REMARK    2  A    between atoms: C15_18  and  C16_19 
REMARK    3  A    between atoms: C16_19  and  O2_21 
REMARK    4  A    between atoms: O2_21  and  C17_22 
REMARK    5  A    between atoms: C18_23  and  C19_24 
ROOT
ATOM      1  C1   11 d          -8.096 208.284 116.541  0.00  0.00     0.121 A 
ATOM      2  C2   11 d          -7.077 208.918 115.668  0.00  0.00     0.009 A 
ATOM      3  C3   11 d          -6.275 209.960 116.170  0.00  0.00     0.018 A 
ATOM      4  C4   11 d          -5.299 210.558 115.356  0.00  0.00     0.043 A 
ATOM      5  C5   11 d          -5.116 210.115 114.039  0.00  0.00     0.116 A 
ATOM      6  F1   11 d          -4.167 210.697 113.250  0.00  0.00    -0.206 F 
ATOM      7  C6   11 d          -5.904 209.070 113.535  0.00  0.00     0.043 A 
ATOM      8  C7   11 d          -6.877 208.468 114.347  0.00  0.00     0.018 A 
ATOM      9  N1   11 d          -9.446 208.255 116.312  0.00  0.00    -0.321 N 
ATOM     10  C8   11 d         -10.005 207.570 117.351  0.00  0.00     0.063 A 
ATOM     11  C9   11 d          -8.979 207.191 118.206  0.00  0.00     0.062 A 
ATOM     12  N2   11 d          -7.812 207.644 117.706  0.00  0.00    -0.335 N 
ATOM     13  C10  11 d          -6.476 207.365 118.245  0.00  0.00     0.158 C 
ATOM     14  C11  11 d          -9.224 206.468 119.385  0.00  0.00     0.032 A 
ATOM     15  C12  11 d         -10.552 206.132 119.700  0.00  0.00     0.002 A 
ATOM     16  C13  11 d         -11.604 206.526 118.850  0.00  0.00     0.002 A 
ATOM     17  C14  11 d         -11.339 207.251 117.672  0.00  0.00     0.032 A 
ENDROOT
BRANCH   9  18
ATOM     18  C15  11 d         -10.070 208.902 115.129  0.00  0.00     0.241 C 
BRANCH  18  19
ATOM     19  C16  11 d         -10.654 208.097 114.001  0.00  0.00     0.277 C 
ATOM     20  O1   11 d          -9.904 207.641 113.098  0.00  0.00    -0.263 OA
BRANCH  19  21
ATOM     21  O2   11 d         -12.066 207.930 113.909  0.00  0.00    -0.314 OA
BRANCH  21  22
ATOM     22  C17  11 d         -12.476 206.545 113.718  0.00  0.00     0.136 C 
ATOM     23  C18  11 d         -13.530 206.473 112.573  0.00  0.00     0.018 C 
ATOM     24  C22  11 d         -14.880 207.058 113.061  0.00  0.00     0.008 C 
ATOM     25  C23  11 d         -15.385 206.396 114.351  0.00  0.00     0.005 C 
ATOM     26  C24  11 d         -14.366 206.461 115.501  0.00  0.00    -0.016 C 
ATOM     27  C25  11 d         -12.996 205.929 115.035  0.00  0.00     0.037 C 
ATOM     28  C26  11 d         -14.294 207.848 116.156  0.00  0.00     0.010 C 
BRANCH  23  29
ATOM     29  C19  11 d         -13.031 207.133 111.241  0.00  0.00    -0.016 C 
ATOM     30  C20  11 d         -14.067 207.079 110.102  0.00  0.00     0.010 C 
ATOM     31  C21  11 d         -11.716 206.514 110.727  0.00  0.00     0.010 C 
ENDBRANCH  23  29
ENDBRANCH  21  22
ENDBRANCH  19  21
ENDBRANCH  18  19
ENDBRANCH   9  18
TORSDOF 5
ENDMDL
MODEL 8
REMARK VINA RESULT:      -9.1      2.375      4.297
REMARK  5 active torsions:
REMARK  status: ('A' for Active; 'I' for Inactive)
REMARK    1  A    between atoms: N1_9  and  C15_18 
REMARK    2  A    between atoms: C15_18  and  C16_19 
REMARK    3  A    between atoms: C16_19  and  O2_21 
REMARK    4  A    between atoms: O2_21  and  C17_22 
REMARK    5  A    between atoms: C18_23  and  C19_24 
ROOT
ATOM      1  C1   11 d         -11.488 207.113 114.747  0.00  0.00     0.121 A 
ATOM      2  C2   11 d         -12.553 206.281 115.362  0.00  0.00     0.009 A 
ATOM      3  C3   11 d         -13.894 206.462 114.979  0.00  0.00     0.018 A 
ATOM      4  C4   11 d         -14.906 205.671 115.546  0.00  0.00     0.043 A 
ATOM      5  C5   11 d         -14.583 204.693 116.496  0.00  0.00     0.116 A 
ATOM      6  F1   11 d         -15.568 203.925 117.045  0.00  0.00    -0.206 F 
ATOM      7  C6   11 d         -13.247 204.498 116.876  0.00  0.00     0.043 A 
ATOM      8  C7   11 d         -12.233 205.285 116.307  0.00  0.00     0.018 A 
ATOM      9  N1   11 d         -10.648 207.966 115.411  0.00  0.00    -0.321 N 
ATOM     10  C8   11 d          -9.828 208.519 114.471  0.00  0.00     0.063 A 
ATOM     11  C9   11 d         -10.185 207.991 113.238  0.00  0.00     0.062 A 
ATOM     12  N2   11 d         -11.213 207.138 113.415  0.00  0.00    -0.335 N 
ATOM     13  C10  11 d         -11.816 206.286 112.384  0.00  0.00     0.158 C 
ATOM     14  C11  11 d          -9.529 208.363 112.053  0.00  0.00     0.032 A 
ATOM     15  C12  11 d          -8.488 209.304 112.132  0.00  0.00     0.002 A 
ATOM     16  C13  11 d          -8.128 209.861 113.375  0.00  0.00     0.002 A 
ATOM     17  C14  11 d          -8.798 209.476 114.553  0.00  0.00     0.032 A 
ENDROOT
BRANCH   9  18
ATOM     18  C15  11 d         -10.727 208.183 116.879  0.00  0.00     0.241 C 
BRANCH  18  19
ATOM     19  C16  11 d          -9.684 207.641 117.816  0.00  0.00     0.277 C 
ATOM     20  O1   11 d         -10.006 206.812 118.707  0.00  0.00    -0.263 OA
BRANCH  19  21
ATOM     21  O2   11 d          -8.349 208.136 117.751  0.00  0.00    -0.314 OA
BRANCH  21  22
ATOM     22  C17  11 d          -7.453 207.521 118.721  0.00  0.00     0.136 C 
ATOM     23  C18  11 d          -6.722 208.636 119.527  0.00  0.00     0.018 C 
ATOM     24  C22  11 d          -5.665 209.329 118.629  0.00  0.00     0.008 C 
ATOM     25  C23  11 d          -4.680 208.338 117.995  0.00  0.00     0.005 C 
ATOM     26  C24  11 d          -5.376 207.231 117.185  0.00  0.00    -0.016 C 
ATOM     27  C25  11 d          -6.467 206.551 118.034  0.00  0.00     0.037 C 
ATOM     28  C26  11 d          -5.878 207.719 115.818  0.00  0.00     0.010 C 
BRANCH  23  29
ATOM     29  C19  11 d          -7.710 209.654 120.195  0.00  0.00    -0.016 C 
ATOM     30  C20  11 d          -7.067 211.019 120.509  0.00  0.00     0.010 C 
ATOM     31  C21  11 d          -8.339 209.107 121.492  0.00  0.00     0.010 C 
ENDBRANCH  23  29
ENDBRANCH  21  22
ENDBRANCH  19  21
ENDBRANCH  18  19
ENDBRANCH   9  18
TORSDOF 5
ENDMDL
MODEL 9
REMARK VINA RESULT:      -9.1      1.023      2.525
REMARK  5 active torsions:
REMARK  status: ('A' for Active; 'I' for Inactive)
REMARK    1  A    between atoms: N1_9  and  C15_18 
REMARK    2  A    between atoms: C15_18  and  C16_19 
REMARK    3  A    between atoms: C16_19  and  O2_21 
REMARK    4  A    between atoms: O2_21  and  C17_22 
REMARK    5  A    between atoms: C18_23  and  C19_24 
ROOT
ATOM      1  C1   11 d         -11.791 207.215 114.515  0.00  0.00     0.121 A 
ATOM      2  C2   11 d         -12.194 206.984 115.925  0.00  0.00     0.009 A 
ATOM      3  C3   11 d         -13.419 207.491 116.396  0.00  0.00     0.018 A 
ATOM      4  C4   11 d         -13.815 207.267 117.725  0.00  0.00     0.043 A 
ATOM      5  C5   11 d         -12.991 206.531 118.588  0.00  0.00     0.116 A 
ATOM      6  F1   11 d         -13.379 206.315 119.878  0.00  0.00    -0.206 F 
ATOM      7  C6   11 d         -11.774 206.013 118.123  0.00  0.00     0.043 A 
ATOM      8  C7   11 d         -11.377 206.233 116.795  0.00  0.00     0.018 A 
ATOM      9  N1   11 d         -10.672 207.885 114.098  0.00  0.00    -0.321 N 
ATOM     10  C8   11 d         -10.685 207.857 112.733  0.00  0.00     0.063 A 
ATOM     11  C9   11 d         -11.823 207.167 112.338  0.00  0.00     0.062 A 
ATOM     12  N2   11 d         -12.501 206.786 113.438  0.00  0.00    -0.335 N 
ATOM     13  C10  11 d         -13.699 205.940 113.464  0.00  0.00     0.158 C 
ATOM     14  C11  11 d         -12.134 206.965 110.983  0.00  0.00     0.032 A 
ATOM     15  C12  11 d         -11.265 207.490 110.011  0.00  0.00     0.002 A 
ATOM     16  C13  11 d         -10.117 208.208 110.400  0.00  0.00     0.002 A 
ATOM     17  C14  11 d          -9.821 208.401 111.763  0.00  0.00     0.032 A 
ENDROOT
BRANCH   9  18
ATOM     18  C15  11 d          -9.710 208.503 115.046  0.00  0.00     0.241 C 
BRANCH  18  19
ATOM     19  C16  11 d          -8.709 209.533 114.601  0.00  0.00     0.277 C 
ATOM     20  O1   11 d          -8.975 210.294 113.635  0.00  0.00    -0.263 OA
BRANCH  19  21
ATOM     21  O2   11 d          -7.425 209.583 115.218  0.00  0.00    -0.314 OA
BRANCH  21  22
ATOM     22  C17  11 d          -6.798 208.277 115.364  0.00  0.00     0.136 C 
ATOM     23  C18  11 d          -6.159 208.168 116.781  0.00  0.00     0.018 C 
ATOM     24  C22  11 d          -4.889 209.053 116.857  0.00  0.00     0.008 C 
ATOM     25  C23  11 d          -3.878 208.743 115.745  0.00  0.00     0.005 C 
ATOM     26  C24  11 d          -4.481 208.852 114.335  0.00  0.00    -0.016 C 
ATOM     27  C25  11 d          -5.774 208.019 114.237  0.00  0.00     0.037 C 
ATOM     28  C26  11 d          -4.653 210.307 113.872  0.00  0.00     0.010 C 
BRANCH  23  29
ATOM     29  C19  11 d          -7.178 208.469 117.935  0.00  0.00    -0.016 C 
ATOM     30  C20  11 d          -6.508 208.946 119.238  0.00  0.00     0.010 C 
ATOM     31  C21  11 d          -8.074 207.259 118.268  0.00  0.00     0.010 C 
ENDBRANCH  23  29
ENDBRANCH  21  22
ENDBRANCH  19  21
ENDBRANCH  18  19
ENDBRANCH   9  18
TORSDOF 5
ENDMDL
MODEL 10
REMARK VINA RESULT:      -8.9      2.912      7.326
REMARK  5 active torsions:
REMARK  status: ('A' for Active; 'I' for Inactive)
REMARK    1  A    between atoms: N1_9  and  C15_18 
REMARK    2  A    between atoms: C15_18  and  C16_19 
REMARK    3  A    between atoms: C16_19  and  O2_21 
REMARK    4  A    between atoms: O2_21  and  C17_22 
REMARK    5  A    between atoms: C18_23  and  C19_24 
ROOT
ATOM      1  C1   11 d          -8.021 208.328 117.106  0.00  0.00     0.121 A 
ATOM      2  C2   11 d          -7.940 207.975 118.546  0.00  0.00     0.009 A 
ATOM      3  C3   11 d          -7.354 206.757 118.938  0.00  0.00     0.018 A 
ATOM      4  C4   11 d          -7.262 206.420 120.297  0.00  0.00     0.043 A 
ATOM      5  C5   11 d          -7.750 207.300 121.273  0.00  0.00     0.116 A 
ATOM      6  F1   11 d          -7.658 206.970 122.594  0.00  0.00    -0.206 F 
ATOM      7  C6   11 d          -8.325 208.520 120.892  0.00  0.00     0.043 A 
ATOM      8  C7   11 d          -8.416 208.861 119.533  0.00  0.00     0.018 A 
ATOM      9  N1   11 d          -9.170 208.555 116.397  0.00  0.00    -0.321 N 
ATOM     10  C8   11 d          -8.789 208.854 115.120  0.00  0.00     0.063 A 
ATOM     11  C9   11 d          -7.403 208.802 115.072  0.00  0.00     0.062 A 
ATOM     12  N2   11 d          -6.940 208.467 116.292  0.00  0.00    -0.335 N 
ATOM     13  C10  11 d          -5.531 208.412 116.697  0.00  0.00     0.158 C 
ATOM     14  C11  11 d          -6.692 209.058 113.888  0.00  0.00     0.032 A 
ATOM     15  C12  11 d          -7.419 209.366 112.725  0.00  0.00     0.002 A 
ATOM     16  C13  11 d          -8.827 209.404 112.757  0.00  0.00     0.002 A 
ATOM     17  C14  11 d          -9.523 209.145 113.954  0.00  0.00     0.032 A 
ENDROOT
BRANCH   9  18
ATOM     18  C15  11 d         -10.520 208.445 117.006  0.00  0.00     0.241 C 
BRANCH  18  19
ATOM     19  C16  11 d         -11.232 207.125 117.123  0.00  0.00     0.277 C 
ATOM     20  O1   11 d         -10.952 206.340 118.066  0.00  0.00    -0.263 OA
BRANCH  19  21
ATOM     21  O2   11 d         -12.156 206.729 116.115  0.00  0.00    -0.314 OA
BRANCH  21  22
ATOM     22  C17  11 d         -13.509 207.222 116.339  0.00  0.00     0.136 C 
ATOM     23  C18  11 d         -14.510 206.031 116.265  0.00  0.00     0.018 C 
ATOM     24  C22  11 d         -14.667 205.562 114.795  0.00  0.00     0.008 C 
ATOM     25  C23  11 d         -15.057 206.702 113.845  0.00  0.00     0.005 C 
ATOM     26  C24  11 d         -14.079 207.888 113.892  0.00  0.00    -0.016 C 
ATOM     27  C25  11 d         -13.864 208.350 115.347  0.00  0.00     0.037 C 
ATOM     28  C26  11 d         -12.770 207.611 113.137  0.00  0.00     0.010 C 
BRANCH  23  29
ATOM     29  C19  11 d         -14.138 204.858 117.238  0.00  0.00    -0.016 C 
ATOM     30  C20  11 d         -15.015 203.605 117.055  0.00  0.00     0.010 C 
ATOM     31  C21  11 d         -14.195 205.275 118.721  0.00  0.00     0.010 C 
ENDBRANCH  23  29
ENDBRANCH  21  22
ENDBRANCH  19  21
ENDBRANCH  18  19
ENDBRANCH   9  18
TORSDOF 5
ENDMDL
