MODEL 1
REMARK VINA RESULT:      -9.6      0.000      0.000
REMARK  6 active torsions:
REMARK  status: ('A' for Active; 'I' for Inactive)
REMARK    1  A    between atoms: C1_1  and  O6_33 
REMARK    2  A    between atoms: C2_2  and  S1_3 
REMARK    3  A    between atoms: S1_3  and  N1_6 
REMARK    4  A    between atoms: N1_6  and  C3_7 
REMARK    5  A    between atoms: C11_16  and  S2_17 
REMARK    6  A    between atoms: S2_17  and  N2_18 
ROOT
ATOM      1  C3   11 d          -6.727 209.327 113.458  0.00  0.00     0.045 A 
ATOM      2  C4   11 d          -7.427 208.710 112.391  0.00  0.00     0.068 A 
ATOM      3  C5   11 d          -8.779 208.412 112.554  0.00  0.00     0.089 A 
ATOM      4  C6   11 d          -9.444 208.722 113.729  0.00  0.00     0.011 A 
ATOM      5  C7   11 d         -10.733 208.274 113.534  0.00  0.00     0.012 A 
ATOM      6  C8   11 d         -10.726 207.722 112.262  0.00  0.00     0.087 A 
ATOM      7  O3   11 d          -9.553 207.816 111.677  0.00  0.00    -0.309 OA
ATOM      8  C9   11 d         -11.871 207.133 111.724  0.00  0.00     0.040 A 
ATOM      9  C10  11 d         -13.040 207.114 112.512  0.00  0.00     0.027 A 
ATOM     10  C11  11 d         -13.048 207.689 113.809  0.00  0.00     0.075 A 
ATOM     11  C16  11 d         -11.880 208.284 114.334  0.00  0.00     0.040 A 
ATOM     12  C17  11 d          -8.801 209.339 114.804  0.00  0.00     0.017 A 
ATOM     13  C18  11 d          -7.430 209.635 114.662  0.00  0.00     0.031 A 
ENDROOT
BRANCH   1  14
ATOM     14  N1   11 d          -5.369 209.579 113.284  0.00  0.00    -0.280 N 
ATOM     15  H1   11 d          -5.089 210.335 112.701  0.00  0.00     0.179 HD
BRANCH  14  16
ATOM     16  S1   11 d          -4.130 208.677 113.987  0.00  0.00     0.266 S 
ATOM     17  O1   11 d          -3.678 209.346 115.287  0.00  0.00    -0.200 OA
ATOM     18  O2   11 d          -4.677 207.297 114.358  0.00  0.00    -0.200 OA
BRANCH  16  19
ATOM     19  C2   11 d          -2.708 208.550 112.886  0.00  0.00     0.116 A 
ATOM     20  C1   11 d          -1.483 207.949 113.262  0.00  0.00     0.091 A 
ATOM     21  C22  11 d          -0.444 207.851 112.319  0.00  0.00     0.041 A 
ATOM     22  C21  11 d          -0.590 208.403 111.038  0.00  0.00     0.045 A 
ATOM     23  C20  11 d          -1.792 209.023 110.678  0.00  0.00     0.118 A 
ATOM     24  C19  11 d          -2.850 209.085 111.592  0.00  0.00     0.070 A 
ATOM     25  F1   11 d          -1.935 209.561 109.432  0.00  0.00    -0.206 F 
BRANCH  20  26
ATOM     26  O6   11 d          -1.318 207.294 114.513  0.00  0.00    -0.354 OA
ATOM     27  C23  11 d          -0.072 207.712 115.128  0.00  0.00     0.210 C 
ENDBRANCH  20  26
ENDBRANCH  16  19
ENDBRANCH  14  16
ENDBRANCH   1  14
BRANCH  10  28
ATOM     28  S2   11 d         -14.548 207.672 114.796  0.00  0.00     0.243 S 
ATOM     29  O4   11 d         -15.722 207.225 113.921  0.00  0.00    -0.206 OA
ATOM     30  O5   11 d         -14.875 209.084 115.289  0.00  0.00    -0.206 OA
BRANCH  28  31
ATOM     31  N2   11 d         -14.410 206.587 116.183  0.00  0.00    -0.206 NA
ATOM     32  C12  11 d         -13.793 207.253 117.363  0.00  0.00     0.107 C 
ATOM     33  C13  11 d         -12.449 206.579 117.584  0.00  0.00     0.017 C 
ATOM     34  C14  11 d         -12.699 205.168 117.094  0.00  0.00     0.017 C 
ATOM     35  C15  11 d         -13.567 205.401 115.868  0.00  0.00     0.107 C 
ENDBRANCH  28  31
ENDBRANCH  10  28
TORSDOF 6
ENDMDL
MODEL 2
REMARK VINA RESULT:      -9.4      7.424     12.204
REMARK  6 active torsions:
REMARK  status: ('A' for Active; 'I' for Inactive)
REMARK    1  A    between atoms: C1_1  and  O6_33 
REMARK    2  A    between atoms: C2_2  and  S1_3 
REMARK    3  A    between atoms: S1_3  and  N1_6 
REMARK    4  A    between atoms: N1_6  and  C3_7 
REMARK    5  A    between atoms: C11_16  and  S2_17 
REMARK    6  A    between atoms: S2_17  and  N2_18 
ROOT
ATOM      1  C3   11 d         -14.243 204.951 119.428  0.00  0.00     0.045 A 
ATOM      2  C4   11 d         -14.009 206.302 119.068  0.00  0.00     0.068 A 
ATOM      3  C5   11 d         -14.046 206.657 117.720  0.00  0.00     0.089 A 
ATOM      4  C6   11 d         -14.322 205.718 116.740  0.00  0.00     0.011 A 
ATOM      5  C7   11 d         -14.259 206.418 115.554  0.00  0.00     0.012 A 
ATOM      6  C8   11 d         -13.937 207.715 115.926  0.00  0.00     0.087 A 
ATOM      7  O3   11 d         -13.820 207.853 117.227  0.00  0.00    -0.309 OA
ATOM      8  C9   11 d         -13.759 208.717 114.971  0.00  0.00     0.040 A 
ATOM      9  C10  11 d         -13.914 208.373 113.612  0.00  0.00     0.027 A 
ATOM     10  C11  11 d         -14.253 207.048 113.234  0.00  0.00     0.075 A 
ATOM     11  C16  11 d         -14.434 206.050 114.216  0.00  0.00     0.040 A 
ATOM     12  C17  11 d         -14.571 204.379 117.045  0.00  0.00     0.017 A 
ATOM     13  C18  11 d         -14.522 203.999 118.401  0.00  0.00     0.031 A 
ENDROOT
BRANCH   1  14
ATOM     14  N1   11 d         -14.161 204.615 120.777  0.00  0.00    -0.280 N 
ATOM     15  H1   11 d         -13.567 203.867 121.053  0.00  0.00     0.179 HD
BRANCH  14  16
ATOM     16  S1   11 d         -15.019 205.383 122.008  0.00  0.00     0.266 S 
ATOM     17  O1   11 d         -14.642 204.771 123.359  0.00  0.00    -0.200 OA
ATOM     18  O2   11 d         -14.604 206.855 122.051  0.00  0.00    -0.200 OA
BRANCH  16  19
ATOM     19  C2   11 d         -16.798 205.205 121.775  0.00  0.00     0.116 A 
ATOM     20  C1   11 d         -17.759 205.838 122.600  0.00  0.00     0.091 A 
ATOM     21  C22  11 d         -19.126 205.680 122.313  0.00  0.00     0.041 A 
ATOM     22  C21  11 d         -19.542 204.848 121.263  0.00  0.00     0.045 A 
ATOM     23  C20  11 d         -18.591 204.199 120.467  0.00  0.00     0.118 A 
ATOM     24  C19  11 d         -17.226 204.387 120.714  0.00  0.00     0.070 A 
ATOM     25  F1   11 d         -18.994 203.391 119.445  0.00  0.00    -0.206 F 
BRANCH  20  26
ATOM     26  O6   11 d         -17.388 206.762 123.616  0.00  0.00    -0.354 OA
ATOM     27  C23  11 d         -18.372 206.742 124.682  0.00  0.00     0.210 C 
ENDBRANCH  20  26
ENDBRANCH  16  19
ENDBRANCH  14  16
ENDBRANCH   1  14
BRANCH  10  28
ATOM     28  S2   11 d         -14.463 206.628 111.501  0.00  0.00     0.243 S 
ATOM     29  O4   11 d         -15.197 207.769 110.791  0.00  0.00    -0.206 OA
ATOM     30  O5   11 d         -15.339 205.381 111.359  0.00  0.00    -0.206 OA
BRANCH  28  31
ATOM     31  N2   11 d         -12.914 206.346 110.701  0.00  0.00    -0.206 NA
ATOM     32  C12  11 d         -11.766 206.435 111.644  0.00  0.00     0.107 C 
ATOM     33  C13  11 d         -10.965 207.660 111.233  0.00  0.00     0.017 C 
ATOM     34  C14  11 d         -11.198 207.725 109.739  0.00  0.00     0.017 C 
ATOM     35  C15  11 d         -12.664 207.343 109.623  0.00  0.00     0.107 C 
ENDBRANCH  28  31
ENDBRANCH  10  28
TORSDOF 6
ENDMDL
MODEL 3
REMARK VINA RESULT:      -9.4      3.108      3.973
REMARK  6 active torsions:
REMARK  status: ('A' for Active; 'I' for Inactive)
REMARK    1  A    between atoms: C1_1  and  O6_33 
REMARK    2  A    between atoms: C2_2  and  S1_3 
REMARK    3  A    between atoms: S1_3  and  N1_6 
REMARK    4  A    between atoms: N1_6  and  C3_7 
REMARK    5  A    between atoms: C11_16  and  S2_17 
REMARK    6  A    between atoms: S2_17  and  N2_18 
ROOT
ATOM      1  C3   11 d          -6.806 209.471 113.527  0.00  0.00     0.045 A 
ATOM      2  C4   11 d          -7.400 208.877 112.385  0.00  0.00     0.068 A 
ATOM      3  C5   11 d          -8.737 208.486 112.446  0.00  0.00     0.089 A 
ATOM      4  C6   11 d          -9.489 208.683 113.592  0.00  0.00     0.011 A 
ATOM      5  C7   11 d         -10.732 208.168 113.292  0.00  0.00     0.012 A 
ATOM      6  C8   11 d         -10.613 207.695 111.993  0.00  0.00     0.087 A 
ATOM      7  O3   11 d          -9.416 207.897 111.489  0.00  0.00    -0.309 OA
ATOM      8  C9   11 d         -11.683 207.069 111.352  0.00  0.00     0.040 A 
ATOM      9  C10  11 d         -12.893 206.930 112.063  0.00  0.00     0.027 A 
ATOM     10  C11  11 d         -13.015 207.424 113.387  0.00  0.00     0.075 A 
ATOM     11  C16  11 d         -11.922 208.058 114.017  0.00  0.00     0.040 A 
ATOM     12  C17  11 d          -8.953 209.273 114.738  0.00  0.00     0.017 A 
ATOM     13  C18  11 d          -7.599 209.661 114.700  0.00  0.00     0.031 A 
ENDROOT
BRANCH   1  14
ATOM     14  N1   11 d          -5.460 209.817 113.453  0.00  0.00    -0.280 N 
ATOM     15  H1   11 d          -5.202 210.656 112.985  0.00  0.00     0.179 HD
BRANCH  14  16
ATOM     16  S1   11 d          -4.199 208.902 114.097  0.00  0.00     0.266 S 
ATOM     17  O1   11 d          -4.472 207.413 113.867  0.00  0.00    -0.200 OA
ATOM     18  O2   11 d          -2.911 209.243 113.345  0.00  0.00    -0.200 OA
BRANCH  16  19
ATOM     19  C2   11 d          -4.025 209.184 115.869  0.00  0.00     0.116 A 
ATOM     20  C1   11 d          -3.035 208.557 116.664  0.00  0.00     0.091 A 
ATOM     21  C22  11 d          -2.944 208.876 118.031  0.00  0.00     0.041 A 
ATOM     22  C21  11 d          -3.865 209.753 118.621  0.00  0.00     0.045 A 
ATOM     23  C20  11 d          -4.861 210.350 117.839  0.00  0.00     0.118 A 
ATOM     24  C19  11 d          -4.933 210.076 116.468  0.00  0.00     0.070 A 
ATOM     25  F1   11 d          -5.758 211.204 118.412  0.00  0.00    -0.206 F 
BRANCH  20  26
ATOM     26  O6   11 d          -2.023 207.735 116.097  0.00  0.00    -0.354 OA
ATOM     27  C23  11 d          -1.709 206.646 117.003  0.00  0.00     0.210 C 
ENDBRANCH  20  26
ENDBRANCH  16  19
ENDBRANCH  14  16
ENDBRANCH   1  14
BRANCH  10  28
ATOM     28  S2   11 d         -14.567 207.254 114.275  0.00  0.00     0.243 S 
ATOM     29  O4   11 d         -14.730 208.435 115.237  0.00  0.00    -0.206 OA
ATOM     30  O5   11 d         -14.552 205.984 115.131  0.00  0.00    -0.206 OA
BRANCH  28  31
ATOM     31  N2   11 d         -15.950 207.202 113.178  0.00  0.00    -0.206 NA
ATOM     32  C12  11 d         -16.507 205.829 113.034  0.00  0.00     0.107 C 
ATOM     33  C13  11 d         -16.238 205.402 111.601  0.00  0.00     0.017 C 
ATOM     34  C14  11 d         -16.281 206.716 110.849  0.00  0.00     0.017 C 
ATOM     35  C15  11 d         -15.581 207.662 111.810  0.00  0.00     0.107 C 
ENDBRANCH  28  31
ENDBRANCH  10  28
TORSDOF 6
ENDMDL
MODEL 4
REMARK VINA RESULT:      -9.4      5.779      9.053
REMARK  6 active torsions:
REMARK  status: ('A' for Active; 'I' for Inactive)
REMARK    1  A    between atoms: C1_1  and  O6_33 
REMARK    2  A    between atoms: C2_2  and  S1_3 
REMARK    3  A    between atoms: S1_3  and  N1_6 
REMARK    4  A    between atoms: N1_6  and  C3_7 
REMARK    5  A    between atoms: C11_16  and  S2_17 
REMARK    6  A    between atoms: S2_17  and  N2_18 
ROOT
ATOM      1  C3   11 d         -11.835 206.489 116.667  0.00  0.00     0.045 A 
ATOM      2  C4   11 d         -12.531 205.256 116.594  0.00  0.00     0.068 A 
ATOM      3  C5   11 d         -13.490 204.964 117.564  0.00  0.00     0.089 A 
ATOM      4  C6   11 d         -13.778 205.861 118.578  0.00  0.00     0.011 A 
ATOM      5  C7   11 d         -14.743 205.236 119.338  0.00  0.00     0.012 A 
ATOM      6  C8   11 d         -14.941 204.010 118.719  0.00  0.00     0.087 A 
ATOM      7  O3   11 d         -14.192 203.858 117.650  0.00  0.00    -0.309 OA
ATOM      8  C9   11 d         -15.843 203.078 119.234  0.00  0.00     0.040 A 
ATOM      9  C10  11 d         -16.550 203.417 120.406  0.00  0.00     0.027 A 
ATOM     10  C11  11 d         -16.355 204.675 121.032  0.00  0.00     0.075 A 
ATOM     11  C16  11 d         -15.440 205.606 120.493  0.00  0.00     0.040 A 
ATOM     12  C17  11 d         -13.128 207.091 118.687  0.00  0.00     0.017 A 
ATOM     13  C18  11 d         -12.145 207.398 117.724  0.00  0.00     0.031 A 
ENDROOT
BRANCH   1  14
ATOM     14  N1   11 d         -10.856 206.739 115.710  0.00  0.00    -0.280 N 
ATOM     15  H1   11 d         -10.061 206.143 115.665  0.00  0.00     0.179 HD
BRANCH  14  16
ATOM     16  S1   11 d         -10.903 208.010 114.603  0.00  0.00     0.266 S 
ATOM     17  O1   11 d         -11.601 209.218 115.232  0.00  0.00    -0.200 OA
ATOM     18  O2   11 d          -9.468 208.436 114.284  0.00  0.00    -0.200 OA
BRANCH  16  19
ATOM     19  C2   11 d         -11.801 207.544 113.111  0.00  0.00     0.116 A 
ATOM     20  C1   11 d         -13.170 207.181 113.107  0.00  0.00     0.091 A 
ATOM     21  C22  11 d         -13.800 206.879 111.887  0.00  0.00     0.041 A 
ATOM     22  C21  11 d         -13.068 206.868 110.690  0.00  0.00     0.045 A 
ATOM     23  C20  11 d         -11.708 207.199 110.700  0.00  0.00     0.118 A 
ATOM     24  C19  11 d         -11.080 207.547 111.903  0.00  0.00     0.070 A 
ATOM     25  F1   11 d         -10.995 207.190 109.537  0.00  0.00    -0.206 F 
BRANCH  20  26
ATOM     26  O6   11 d         -13.975 207.266 114.276  0.00  0.00    -0.354 OA
ATOM     27  C23  11 d         -15.246 206.604 114.048  0.00  0.00     0.210 C 
ENDBRANCH  20  26
ENDBRANCH  16  19
ENDBRANCH  14  16
ENDBRANCH   1  14
BRANCH  10  28
ATOM     28  S2   11 d         -17.274 205.100 122.515  0.00  0.00     0.243 S 
ATOM     29  O4   11 d         -16.797 206.460 123.032  0.00  0.00    -0.206 OA
ATOM     30  O5   11 d         -16.994 204.081 123.623  0.00  0.00    -0.206 OA
BRANCH  28  31
ATOM     31  N2   11 d         -19.013 205.170 122.212  0.00  0.00    -0.206 NA
ATOM     32  C12  11 d         -19.685 203.867 122.469  0.00  0.00     0.107 C 
ATOM     33  C13  11 d         -20.175 203.362 121.122  0.00  0.00     0.017 C 
ATOM     34  C14  11 d         -20.461 204.644 120.369  0.00  0.00     0.017 C 
ATOM     35  C15  11 d         -19.308 205.536 120.799  0.00  0.00     0.107 C 
ENDBRANCH  28  31
ENDBRANCH  10  28
TORSDOF 6
ENDMDL
MODEL 5
REMARK VINA RESULT:      -9.3      4.473      9.885
REMARK  6 active torsions:
REMARK  status: ('A' for Active; 'I' for Inactive)
REMARK    1  A    between atoms: C1_1  and  O6_33 
REMARK    2  A    between atoms: C2_2  and  S1_3 
REMARK    3  A    between atoms: S1_3  and  N1_6 
REMARK    4  A    between atoms: N1_6  and  C3_7 
REMARK    5  A    between atoms: C11_16  and  S2_17 
REMARK    6  A    between atoms: S2_17  and  N2_18 
ROOT
ATOM      1  C3   11 d         -11.876 208.094 115.532  0.00  0.00     0.045 A 
ATOM      2  C4   11 d         -10.928 208.656 114.640  0.00  0.00     0.068 A 
ATOM      3  C5   11 d          -9.611 208.819 115.071  0.00  0.00     0.089 A 
ATOM      4  C6   11 d          -9.220 208.427 116.341  0.00  0.00     0.011 A 
ATOM      5  C7   11 d          -7.882 208.751 116.413  0.00  0.00     0.012 A 
ATOM      6  C8   11 d          -7.590 209.320 115.182  0.00  0.00     0.087 A 
ATOM      7  O3   11 d          -8.630 209.350 114.380  0.00  0.00    -0.309 OA
ATOM      8  C9   11 d          -6.312 209.803 114.895  0.00  0.00     0.040 A 
ATOM      9  C10  11 d          -5.323 209.696 115.894  0.00  0.00     0.027 A 
ATOM     10  C11  11 d          -5.621 209.103 117.148  0.00  0.00     0.075 A 
ATOM     11  C16  11 d          -6.919 208.617 117.418  0.00  0.00     0.040 A 
ATOM     12  C17  11 d         -10.114 207.859 117.250  0.00  0.00     0.017 A 
ATOM     13  C18  11 d         -11.453 207.701 116.838  0.00  0.00     0.031 A 
ENDROOT
BRANCH   1  14
ATOM     14  N1   11 d         -13.192 207.978 115.091  0.00  0.00    -0.280 N 
ATOM     15  H1   11 d         -13.770 208.788 115.078  0.00  0.00     0.179 HD
BRANCH  14  16
ATOM     16  S1   11 d         -13.906 206.541 114.577  0.00  0.00     0.266 S 
ATOM     17  O1   11 d         -12.879 205.407 114.626  0.00  0.00    -0.200 OA
ATOM     18  O2   11 d         -15.027 206.174 115.551  0.00  0.00    -0.200 OA
BRANCH  16  19
ATOM     19  C2   11 d         -14.519 206.683 112.888  0.00  0.00     0.116 A 
ATOM     20  C1   11 d         -13.680 206.921 111.772  0.00  0.00     0.091 A 
ATOM     21  C22  11 d         -14.242 206.968 110.484  0.00  0.00     0.041 A 
ATOM     22  C21  11 d         -15.628 206.851 110.306  0.00  0.00     0.045 A 
ATOM     23  C20  11 d         -16.459 206.645 111.414  0.00  0.00     0.118 A 
ATOM     24  C19  11 d         -15.906 206.549 112.696  0.00  0.00     0.070 A 
ATOM     25  F1   11 d         -17.808 206.529 111.242  0.00  0.00    -0.206 F 
BRANCH  20  26
ATOM     26  O6   11 d         -12.263 206.955 111.888  0.00  0.00    -0.354 OA
ATOM     27  C23  11 d         -11.667 207.168 110.583  0.00  0.00     0.210 C 
ENDBRANCH  20  26
ENDBRANCH  16  19
ENDBRANCH  14  16
ENDBRANCH   1  14
BRANCH  10  28
ATOM     28  S2   11 d          -4.347 208.959 118.406  0.00  0.00     0.243 S 
ATOM     29  O4   11 d          -2.976 209.192 117.764  0.00  0.00    -0.206 OA
ATOM     30  O5   11 d          -4.330 207.542 118.985  0.00  0.00    -0.206 OA
BRANCH  28  31
ATOM     31  N2   11 d          -4.581 210.122 119.715  0.00  0.00    -0.206 NA
ATOM     32  C12  11 d          -5.444 209.584 120.802  0.00  0.00     0.107 C 
ATOM     33  C13  11 d          -6.724 210.402 120.781  0.00  0.00     0.017 C 
ATOM     34  C14  11 d          -6.248 211.753 120.290  0.00  0.00     0.017 C 
ATOM     35  C15  11 d          -5.230 211.371 119.228  0.00  0.00     0.107 C 
ENDBRANCH  28  31
ENDBRANCH  10  28
TORSDOF 6
ENDMDL
MODEL 6
REMARK VINA RESULT:      -9.2      3.352      4.001
REMARK  6 active torsions:
REMARK  status: ('A' for Active; 'I' for Inactive)
REMARK    1  A    between atoms: C1_1  and  O6_33 
REMARK    2  A    between atoms: C2_2  and  S1_3 
REMARK    3  A    between atoms: S1_3  and  N1_6 
REMARK    4  A    between atoms: N1_6  and  C3_7 
REMARK    5  A    between atoms: C11_16  and  S2_17 
REMARK    6  A    between atoms: S2_17  and  N2_18 
ROOT
ATOM      1  C3   11 d          -7.418 209.563 114.046  0.00  0.00     0.045 A 
ATOM      2  C4   11 d          -7.700 209.317 112.679  0.00  0.00     0.068 A 
ATOM      3  C5   11 d          -8.922 208.741 112.335  0.00  0.00     0.089 A 
ATOM      4  C6   11 d          -9.862 208.424 113.302  0.00  0.00     0.011 A 
ATOM      5  C7   11 d         -10.913 207.871 112.604  0.00  0.00     0.012 A 
ATOM      6  C8   11 d         -10.507 207.893 111.278  0.00  0.00     0.087 A 
ATOM      7  O3   11 d          -9.315 208.424 111.123  0.00  0.00    -0.309 OA
ATOM      8  C9   11 d         -11.318 207.377 110.266  0.00  0.00     0.040 A 
ATOM      9  C10  11 d         -12.567 206.831 110.630  0.00  0.00     0.027 A 
ATOM     10  C11  11 d         -12.985 206.820 111.985  0.00  0.00     0.075 A 
ATOM     11  C16  11 d         -12.151 207.350 112.994  0.00  0.00     0.040 A 
ATOM     12  C17  11 d          -9.636 208.657 114.660  0.00  0.00     0.017 A 
ATOM     13  C18  11 d          -8.399 209.225 115.028  0.00  0.00     0.031 A 
ENDROOT
BRANCH   1  14
ATOM     14  N1   11 d          -6.175 210.103 114.366  0.00  0.00    -0.280 N 
ATOM     15  H1   11 d          -6.018 211.074 114.218  0.00  0.00     0.179 HD
BRANCH  14  16
ATOM     16  S1   11 d          -4.880 209.221 114.988  0.00  0.00     0.266 S 
ATOM     17  O1   11 d          -5.188 207.724 114.908  0.00  0.00    -0.200 OA
ATOM     18  O2   11 d          -3.650 209.474 114.114  0.00  0.00    -0.200 OA
BRANCH  16  19
ATOM     19  C2   11 d          -4.565 209.649 116.711  0.00  0.00     0.116 A 
ATOM     20  C1   11 d          -3.472 209.140 117.452  0.00  0.00     0.091 A 
ATOM     21  C22  11 d          -3.278 209.567 118.778  0.00  0.00     0.041 A 
ATOM     22  C21  11 d          -4.195 210.436 119.387  0.00  0.00     0.045 A 
ATOM     23  C20  11 d          -5.292 210.915 118.662  0.00  0.00     0.118 A 
ATOM     24  C19  11 d          -5.470 210.533 117.326  0.00  0.00     0.070 A 
ATOM     25  F1   11 d          -6.185 211.761 119.253  0.00  0.00    -0.206 F 
BRANCH  20  26
ATOM     26  O6   11 d          -2.466 208.332 116.853  0.00  0.00    -0.354 OA
ATOM     27  C23  11 d          -2.495 207.001 117.430  0.00  0.00     0.210 C 
ENDBRANCH  20  26
ENDBRANCH  16  19
ENDBRANCH  14  16
ENDBRANCH   1  14
BRANCH  10  28
ATOM     28  S2   11 d         -14.584 206.135 112.432  0.00  0.00     0.243 S 
ATOM     29  O4   11 d         -14.646 204.670 111.993  0.00  0.00    -0.206 OA
ATOM     30  O5   11 d         -15.702 206.870 111.687  0.00  0.00    -0.206 OA
BRANCH  28  31
ATOM     31  N2   11 d         -14.878 206.234 114.171  0.00  0.00    -0.206 NA
ATOM     32  C12  11 d         -15.221 207.615 114.609  0.00  0.00     0.107 C 
ATOM     33  C13  11 d         -14.070 208.089 115.481  0.00  0.00     0.017 C 
ATOM     34  C14  11 d         -13.575 206.802 116.107  0.00  0.00     0.017 C 
ATOM     35  C15  11 d         -13.681 205.819 114.953  0.00  0.00     0.107 C 
ENDBRANCH  28  31
ENDBRANCH  10  28
TORSDOF 6
ENDMDL
MODEL 7
REMARK VINA RESULT:      -9.2      5.372      9.176
REMARK  6 active torsions:
REMARK  status: ('A' for Active; 'I' for Inactive)
REMARK    1  A    between atoms: C1_1  and  O6_33 
REMARK    2  A    between atoms: C2_2  and  S1_3 
REMARK    3  A    between atoms: S1_3  and  N1_6 
REMARK    4  A    between atoms: N1_6  and  C3_7 
REMARK    5  A    between atoms: C11_16  and  S2_17 
REMARK    6  A    between atoms: S2_17  and  N2_18 
ROOT
ATOM      1  C3   11 d         -12.864 205.747 116.373  0.00  0.00     0.045 A 
ATOM      2  C4   11 d         -13.755 204.695 116.703  0.00  0.00     0.068 A 
ATOM      3  C5   11 d         -14.255 204.617 118.003  0.00  0.00     0.089 A 
ATOM      4  C6   11 d         -13.908 205.556 118.960  0.00  0.00     0.011 A 
ATOM      5  C7   11 d         -14.568 205.154 120.102  0.00  0.00     0.012 A 
ATOM      6  C8   11 d         -15.244 204.001 119.732  0.00  0.00     0.087 A 
ATOM      7  O3   11 d         -15.059 203.690 118.469  0.00  0.00    -0.309 OA
ATOM      8  C9   11 d         -16.011 203.287 120.654  0.00  0.00     0.040 A 
ATOM      9  C10  11 d         -16.080 203.772 121.977  0.00  0.00     0.027 A 
ATOM     10  C11  11 d         -15.396 204.957 122.350  0.00  0.00     0.075 A 
ATOM     11  C16  11 d         -14.628 205.667 121.402  0.00  0.00     0.040 A 
ATOM     12  C17  11 d         -13.044 206.615 118.681  0.00  0.00     0.017 A 
ATOM     13  C18  11 d         -12.516 206.701 117.377  0.00  0.00     0.031 A 
ENDROOT
BRANCH   1  14
ATOM     14  N1   11 d         -12.349 205.779 115.080  0.00  0.00    -0.280 N 
ATOM     15  H1   11 d         -11.469 205.351 114.900  0.00  0.00     0.179 HD
BRANCH  14  16
ATOM     16  S1   11 d         -13.107 206.514 113.766  0.00  0.00     0.266 S 
ATOM     17  O1   11 d         -13.926 205.476 112.995  0.00  0.00    -0.200 OA
ATOM     18  O2   11 d         -14.090 207.563 114.289  0.00  0.00    -0.200 OA
BRANCH  16  19
ATOM     19  C2   11 d         -11.901 207.241 112.639  0.00  0.00     0.116 A 
ATOM     20  C1   11 d         -10.787 208.000 113.074  0.00  0.00     0.091 A 
ATOM     21  C22  11 d          -9.872 208.488 112.125  0.00  0.00     0.041 A 
ATOM     22  C21  11 d         -10.092 208.287 110.755  0.00  0.00     0.045 A 
ATOM     23  C20  11 d         -11.210 207.563 110.325  0.00  0.00     0.118 A 
ATOM     24  C19  11 d         -12.103 207.031 111.263  0.00  0.00     0.070 A 
ATOM     25  F1   11 d         -11.424 207.366 108.992  0.00  0.00    -0.206 F 
BRANCH  20  26
ATOM     26  O6   11 d         -10.471 208.151 114.452  0.00  0.00    -0.354 OA
ATOM     27  C23  11 d          -9.341 209.049 114.602  0.00  0.00     0.210 C 
ENDBRANCH  20  26
ENDBRANCH  16  19
ENDBRANCH  14  16
ENDBRANCH   1  14
BRANCH  10  28
ATOM     28  S2   11 d         -15.505 205.571 124.035  0.00  0.00     0.243 S 
ATOM     29  O4   11 d         -14.658 206.840 124.165  0.00  0.00    -0.206 OA
ATOM     30  O5   11 d         -14.922 204.546 125.012  0.00  0.00    -0.206 OA
BRANCH  28  31
ATOM     31  N2   11 d         -17.171 205.934 124.495  0.00  0.00    -0.206 NA
ATOM     32  C12  11 d         -17.833 204.787 125.175  0.00  0.00     0.107 C 
ATOM     33  C13  11 d         -18.930 204.307 124.240  0.00  0.00     0.017 C 
ATOM     34  C14  11 d         -19.340 205.578 123.527  0.00  0.00     0.017 C 
ATOM     35  C15  11 d         -18.005 206.271 123.309  0.00  0.00     0.107 C 
ENDBRANCH  28  31
ENDBRANCH  10  28
TORSDOF 6
ENDMDL
MODEL 8
REMARK VINA RESULT:      -9.0      2.845      3.461
REMARK  6 active torsions:
REMARK  status: ('A' for Active; 'I' for Inactive)
REMARK    1  A    between atoms: C1_1  and  O6_33 
REMARK    2  A    between atoms: C2_2  and  S1_3 
REMARK    3  A    between atoms: S1_3  and  N1_6 
REMARK    4  A    between atoms: N1_6  and  C3_7 
REMARK    5  A    between atoms: C11_16  and  S2_17 
REMARK    6  A    between atoms: S2_17  and  N2_18 
ROOT
ATOM      1  C3   11 d          -8.121 209.492 114.781  0.00  0.00     0.045 A 
ATOM      2  C4   11 d          -8.115 209.436 113.364  0.00  0.00     0.068 A 
ATOM      3  C5   11 d          -9.187 208.829 112.709  0.00  0.00     0.089 A 
ATOM      4  C6   11 d         -10.253 208.301 113.418  0.00  0.00     0.011 A 
ATOM      5  C7   11 d         -11.093 207.782 112.457  0.00  0.00     0.012 A 
ATOM      6  C8   11 d         -10.451 208.034 111.253  0.00  0.00     0.087 A 
ATOM      7  O3   11 d          -9.312 208.670 111.412  0.00  0.00    -0.309 OA
ATOM      8  C9   11 d         -11.002 207.619 110.040  0.00  0.00     0.040 A 
ATOM      9  C10  11 d         -12.234 206.933 110.071  0.00  0.00     0.027 A 
ATOM     10  C11  11 d         -12.894 206.686 111.302  0.00  0.00     0.075 A 
ATOM     11  C16  11 d         -12.322 207.118 112.518  0.00  0.00     0.040 A 
ATOM     12  C17  11 d         -10.310 208.342 114.812  0.00  0.00     0.017 A 
ATOM     13  C18  11 d          -9.228 208.938 115.492  0.00  0.00     0.031 A 
ENDROOT
BRANCH   1  14
ATOM     14  N1   11 d          -7.022 210.068 115.411  0.00  0.00    -0.280 N 
ATOM     15  H1   11 d          -6.758 210.996 115.169  0.00  0.00     0.179 HD
BRANCH  14  16
ATOM     16  S1   11 d          -6.070 209.298 116.570  0.00  0.00     0.266 S 
ATOM     17  O1   11 d          -5.199 210.329 117.291  0.00  0.00    -0.200 OA
ATOM     18  O2   11 d          -6.989 208.671 117.622  0.00  0.00    -0.200 OA
BRANCH  16  19
ATOM     19  C2   11 d          -4.992 208.065 115.816  0.00  0.00     0.116 A 
ATOM     20  C1   11 d          -4.395 207.005 116.541  0.00  0.00     0.091 A 
ATOM     21  C22  11 d          -3.607 206.062 115.859  0.00  0.00     0.041 A 
ATOM     22  C21  11 d          -3.354 206.202 114.486  0.00  0.00     0.045 A 
ATOM     23  C20  11 d          -3.922 207.268 113.777  0.00  0.00     0.118 A 
ATOM     24  C19  11 d          -4.747 208.187 114.436  0.00  0.00     0.070 A 
ATOM     25  F1   11 d          -3.678 207.405 112.442  0.00  0.00    -0.206 F 
BRANCH  20  26
ATOM     26  O6   11 d          -4.693 206.767 117.910  0.00  0.00    -0.354 OA
ATOM     27  C23  11 d          -5.389 205.501 118.049  0.00  0.00     0.210 C 
ENDBRANCH  20  26
ENDBRANCH  16  19
ENDBRANCH  14  16
ENDBRANCH   1  14
BRANCH  10  28
ATOM     28  S2   11 d         -14.470 205.825 111.325  0.00  0.00     0.243 S 
ATOM     29  O4   11 d         -14.272 204.396 110.813  0.00  0.00    -0.206 OA
ATOM     30  O5   11 d         -15.459 206.503 110.373  0.00  0.00    -0.206 OA
BRANCH  28  31
ATOM     31  N2   11 d         -15.166 205.771 112.948  0.00  0.00    -0.206 NA
ATOM     32  C12  11 d         -15.782 207.067 113.342  0.00  0.00     0.107 C 
ATOM     33  C13  11 d         -14.935 207.618 114.478  0.00  0.00     0.017 C 
ATOM     34  C14  11 d         -14.429 206.363 115.156  0.00  0.00     0.017 C 
ATOM     35  C15  11 d         -14.135 205.453 113.974  0.00  0.00     0.107 C 
ENDBRANCH  28  31
ENDBRANCH  10  28
TORSDOF 6
ENDMDL
MODEL 9
REMARK VINA RESULT:      -8.9      6.598      9.516
REMARK  6 active torsions:
REMARK  status: ('A' for Active; 'I' for Inactive)
REMARK    1  A    between atoms: C1_1  and  O6_33 
REMARK    2  A    between atoms: C2_2  and  S1_3 
REMARK    3  A    between atoms: S1_3  and  N1_6 
REMARK    4  A    between atoms: N1_6  and  C3_7 
REMARK    5  A    between atoms: C11_16  and  S2_17 
REMARK    6  A    between atoms: S2_17  and  N2_18 
ROOT
ATOM      1  C3   11 d         -12.104 206.244 116.520  0.00  0.00     0.045 A 
ATOM      2  C4   11 d         -12.775 204.995 116.539  0.00  0.00     0.068 A 
ATOM      3  C5   11 d         -13.694 204.738 117.556  0.00  0.00     0.089 A 
ATOM      4  C6   11 d         -13.969 205.685 118.529  0.00  0.00     0.011 A 
ATOM      5  C7   11 d         -14.894 205.083 119.355  0.00  0.00     0.012 A 
ATOM      6  C8   11 d         -15.084 203.821 118.812  0.00  0.00     0.087 A 
ATOM      7  O3   11 d         -14.368 203.624 117.728  0.00  0.00    -0.309 OA
ATOM      8  C9   11 d         -15.948 202.901 119.408  0.00  0.00     0.040 A 
ATOM      9  C10  11 d         -16.623 203.291 120.583  0.00  0.00     0.027 A 
ATOM     10  C11  11 d         -16.435 204.586 121.131  0.00  0.00     0.075 A 
ATOM     11  C16  11 d         -15.560 205.504 120.510  0.00  0.00     0.040 A 
ATOM     12  C17  11 d         -13.343 206.932 118.546  0.00  0.00     0.017 A 
ATOM     13  C18  11 d         -12.400 207.204 117.535  0.00  0.00     0.031 A 
ENDROOT
BRANCH   1  14
ATOM     14  N1   11 d         -11.163 206.460 115.518  0.00  0.00    -0.280 N 
ATOM     15  H1   11 d         -10.311 205.948 115.536  0.00  0.00     0.179 HD
BRANCH  14  16
ATOM     16  S1   11 d         -11.350 207.557 114.251  0.00  0.00     0.266 S 
ATOM     17  O1   11 d         -11.692 208.940 114.810  0.00  0.00    -0.200 OA
ATOM     18  O2   11 d         -10.014 207.688 113.515  0.00  0.00    -0.200 OA
BRANCH  16  19
ATOM     19  C2   11 d         -12.672 207.048 113.135  0.00  0.00     0.116 A 
ATOM     20  C1   11 d         -12.502 206.917 111.735  0.00  0.00     0.091 A 
ATOM     21  C22  11 d         -13.578 206.467 110.950  0.00  0.00     0.041 A 
ATOM     22  C21  11 d         -14.829 206.216 111.531  0.00  0.00     0.045 A 
ATOM     23  C20  11 d         -15.003 206.375 112.911  0.00  0.00     0.118 A 
ATOM     24  C19  11 d         -13.926 206.777 113.711  0.00  0.00     0.070 A 
ATOM     25  F1   11 d         -16.219 206.130 113.479  0.00  0.00    -0.206 F 
BRANCH  20  26
ATOM     26  O6   11 d         -11.233 207.069 111.113  0.00  0.00    -0.354 OA
ATOM     27  C23  11 d         -11.407 207.520 109.744  0.00  0.00     0.210 C 
ENDBRANCH  20  26
ENDBRANCH  16  19
ENDBRANCH  14  16
ENDBRANCH   1  14
BRANCH  10  28
ATOM     28  S2   11 d         -17.315 205.074 122.619  0.00  0.00     0.243 S 
ATOM     29  O4   11 d         -16.785 206.429 123.096  0.00  0.00    -0.206 OA
ATOM     30  O5   11 d         -17.049 204.072 123.745  0.00  0.00    -0.206 OA
BRANCH  28  31
ATOM     31  N2   11 d         -19.055 205.194 122.343  0.00  0.00    -0.206 NA
ATOM     32  C12  11 d         -19.758 203.906 122.593  0.00  0.00     0.107 C 
ATOM     33  C13  11 d         -20.281 203.433 121.247  0.00  0.00     0.017 C 
ATOM     34  C14  11 d         -20.544 204.733 120.516  0.00  0.00     0.017 C 
ATOM     35  C15  11 d         -19.362 205.587 120.940  0.00  0.00     0.107 C 
ENDBRANCH  28  31
ENDBRANCH  10  28
TORSDOF 6
ENDMDL
MODEL 10
REMARK VINA RESULT:      -8.8      5.695     12.103
REMARK  6 active torsions:
REMARK  status: ('A' for Active; 'I' for Inactive)
REMARK    1  A    between atoms: C1_1  and  O6_33 
REMARK    2  A    between atoms: C2_2  and  S1_3 
REMARK    3  A    between atoms: S1_3  and  N1_6 
REMARK    4  A    between atoms: N1_6  and  C3_7 
REMARK    5  A    between atoms: C11_16  and  S2_17 
REMARK    6  A    between atoms: S2_17  and  N2_18 
ROOT
ATOM      1  C3   11 d         -13.711 205.300 118.537  0.00  0.00     0.045 A 
ATOM      2  C4   11 d         -14.086 205.170 117.176  0.00  0.00     0.068 A 
ATOM      3  C5   11 d         -13.304 205.786 116.199  0.00  0.00     0.089 A 
ATOM      4  C6   11 d         -12.168 206.502 116.538  0.00  0.00     0.011 A 
ATOM      5  C7   11 d         -11.674 206.968 115.338  0.00  0.00     0.012 A 
ATOM      6  C8   11 d         -12.567 206.501 114.384  0.00  0.00     0.087 A 
ATOM      7  O3   11 d         -13.537 205.786 114.907  0.00  0.00    -0.309 OA
ATOM      8  C9   11 d         -12.402 206.805 113.032  0.00  0.00     0.040 A 
ATOM      9  C10  11 d         -11.301 207.604 112.661  0.00  0.00     0.027 A 
ATOM     10  C11  11 d         -10.384 208.072 113.637  0.00  0.00     0.075 A 
ATOM     11  C16  11 d         -10.565 207.749 115.000  0.00  0.00     0.040 A 
ATOM     12  C17  11 d         -11.751 206.648 117.862  0.00  0.00     0.017 A 
ATOM     13  C18  11 d         -12.538 206.046 118.864  0.00  0.00     0.031 A 
ENDROOT
BRANCH   1  14
ATOM     14  N1   11 d         -14.529 204.709 119.495  0.00  0.00    -0.280 N 
ATOM     15  H1   11 d         -14.700 203.730 119.446  0.00  0.00     0.179 HD
BRANCH  14  16
ATOM     16  S1   11 d         -15.283 205.538 120.754  0.00  0.00     0.266 S 
ATOM     17  O1   11 d         -14.442 205.419 122.028  0.00  0.00    -0.200 OA
ATOM     18  O2   11 d         -15.345 207.025 120.395  0.00  0.00    -0.200 OA
BRANCH  16  19
ATOM     19  C2   11 d         -16.924 204.870 121.088  0.00  0.00     0.116 A 
ATOM     20  C1   11 d         -17.483 203.785 120.370  0.00  0.00     0.091 A 
ATOM     21  C22  11 d         -18.752 203.299 120.733  0.00  0.00     0.041 A 
ATOM     22  C21  11 d         -19.490 203.924 121.750  0.00  0.00     0.045 A 
ATOM     23  C20  11 d         -18.947 205.015 122.438  0.00  0.00     0.118 A 
ATOM     24  C19  11 d         -17.665 205.478 122.117  0.00  0.00     0.070 A 
ATOM     25  F1   11 d         -19.663 205.623 123.427  0.00  0.00    -0.206 F 
BRANCH  20  26
ATOM     26  O6   11 d         -16.740 203.062 119.397  0.00  0.00    -0.354 OA
ATOM     27  C23  11 d         -17.483 203.006 118.152  0.00  0.00     0.210 C 
ENDBRANCH  20  26
ENDBRANCH  16  19
ENDBRANCH  14  16
ENDBRANCH   1  14
BRANCH  10  28
ATOM     28  S2   11 d          -8.976 209.075 113.148  0.00  0.00     0.243 S 
ATOM     29  O4   11 d          -8.803 210.222 114.147  0.00  0.00    -0.206 OA
ATOM     30  O5   11 d          -9.229 209.712 111.779  0.00  0.00    -0.206 OA
BRANCH  28  31
ATOM     31  N2   11 d          -7.486 208.129 113.084  0.00  0.00    -0.206 NA
ATOM     32  C12  11 d          -6.556 208.462 114.198  0.00  0.00     0.107 C 
ATOM     33  C13  11 d          -5.343 209.122 113.563  0.00  0.00     0.017 C 
ATOM     34  C14  11 d          -5.276 208.457 112.204  0.00  0.00     0.017 C 
ATOM     35  C15  11 d          -6.742 208.364 111.816  0.00  0.00     0.107 C 
ENDBRANCH  28  31
ENDBRANCH  10  28
TORSDOF 6
ENDMDL
MODEL 11
REMARK VINA RESULT:      -8.8      4.657      9.984
REMARK  6 active torsions:
REMARK  status: ('A' for Active; 'I' for Inactive)
REMARK    1  A    between atoms: C1_1  and  O6_33 
REMARK    2  A    between atoms: C2_2  and  S1_3 
REMARK    3  A    between atoms: S1_3  and  N1_6 
REMARK    4  A    between atoms: N1_6  and  C3_7 
REMARK    5  A    between atoms: C11_16  and  S2_17 
REMARK    6  A    between atoms: S2_17  and  N2_18 
ROOT
ATOM      1  C3   11 d         -10.721 208.358 114.466  0.00  0.00     0.045 A 
ATOM      2  C4   11 d          -9.481 208.812 113.950  0.00  0.00     0.068 A 
ATOM      3  C5   11 d          -8.404 208.969 114.822  0.00  0.00     0.089 A 
ATOM      4  C6   11 d          -8.526 208.673 116.170  0.00  0.00     0.011 A 
ATOM      5  C7   11 d          -7.288 208.959 116.706  0.00  0.00     0.012 A 
ATOM      6  C8   11 d          -6.535 209.413 115.633  0.00  0.00     0.087 A 
ATOM      7  O3   11 d          -7.209 209.408 114.505  0.00  0.00    -0.309 OA
ATOM      8  C9   11 d          -5.214 209.829 115.804  0.00  0.00     0.040 A 
ATOM      9  C10  11 d          -4.664 209.775 117.101  0.00  0.00     0.027 A 
ATOM     10  C11  11 d          -5.432 209.300 118.195  0.00  0.00     0.075 A 
ATOM     11  C16  11 d          -6.766 208.879 118.001  0.00  0.00     0.040 A 
ATOM     12  C17  11 d          -9.721 208.213 116.723  0.00  0.00     0.017 A 
ATOM     13  C18  11 d         -10.825 208.063 115.860  0.00  0.00     0.031 A 
ENDROOT
BRANCH   1  14
ATOM     14  N1   11 d         -11.791 208.248 113.582  0.00  0.00    -0.280 N 
ATOM     15  H1   11 d         -12.527 208.916 113.629  0.00  0.00     0.179 HD
BRANCH  14  16
ATOM     16  S1   11 d         -11.951 207.037 112.420  0.00  0.00     0.266 S 
ATOM     17  O1   11 d         -11.188 207.433 111.154  0.00  0.00    -0.200 OA
ATOM     18  O2   11 d         -11.305 205.757 112.952  0.00  0.00    -0.200 OA
BRANCH  16  19
ATOM     19  C2   11 d         -13.681 206.773 111.986  0.00  0.00     0.116 A 
ATOM     20  C1   11 d         -14.648 206.285 112.899  0.00  0.00     0.091 A 
ATOM     21  C22  11 d         -15.985 206.157 112.484  0.00  0.00     0.041 A 
ATOM     22  C21  11 d         -16.351 206.442 111.161  0.00  0.00     0.045 A 
ATOM     23  C20  11 d         -15.389 206.897 110.252  0.00  0.00     0.118 A 
ATOM     24  C19  11 d         -14.063 207.073 110.666  0.00  0.00     0.070 A 
ATOM     25  F1   11 d         -15.744 207.176 108.965  0.00  0.00    -0.206 F 
BRANCH  20  26
ATOM     26  O6   11 d         -14.346 206.070 114.271  0.00  0.00    -0.354 OA
ATOM     27  C23  11 d         -14.853 207.174 115.065  0.00  0.00     0.210 C 
ENDBRANCH  20  26
ENDBRANCH  16  19
ENDBRANCH  14  16
ENDBRANCH   1  14
BRANCH  10  28
ATOM     28  S2   11 d          -4.713 209.221 119.838  0.00  0.00     0.243 S 
ATOM     29  O4   11 d          -3.237 209.624 119.763  0.00  0.00    -0.206 OA
ATOM     30  O5   11 d          -4.754 207.785 120.368  0.00  0.00    -0.206 OA
BRANCH  28  31
ATOM     31  N2   11 d          -5.549 210.286 120.973  0.00  0.00    -0.206 NA
ATOM     32  C12  11 d          -6.044 211.530 120.322  0.00  0.00     0.107 C 
ATOM     33  C13  11 d          -5.242 212.675 120.917  0.00  0.00     0.017 C 
ATOM     34  C14  11 d          -4.946 212.182 122.317  0.00  0.00     0.017 C 
ATOM     35  C15  11 d          -4.657 210.708 122.087  0.00  0.00     0.107 C 
ENDBRANCH  28  31
ENDBRANCH  10  28
TORSDOF 6
ENDMDL
MODEL 12
REMARK VINA RESULT:      -8.5      7.453     12.344
REMARK  6 active torsions:
REMARK  status: ('A' for Active; 'I' for Inactive)
REMARK    1  A    between atoms: C1_1  and  O6_33 
REMARK    2  A    between atoms: C2_2  and  S1_3 
REMARK    3  A    between atoms: S1_3  and  N1_6 
REMARK    4  A    between atoms: N1_6  and  C3_7 
REMARK    5  A    between atoms: C11_16  and  S2_17 
REMARK    6  A    between atoms: S2_17  and  N2_18 
ROOT
ATOM      1  C3   11 d         -14.443 204.750 119.198  0.00  0.00     0.045 A 
ATOM      2  C4   11 d         -13.758 205.978 119.016  0.00  0.00     0.068 A 
ATOM      3  C5   11 d         -13.409 206.370 117.724  0.00  0.00     0.089 A 
ATOM      4  C6   11 d         -13.734 205.590 116.626  0.00  0.00     0.011 A 
ATOM      5  C7   11 d         -13.225 206.275 115.544  0.00  0.00     0.012 A 
ATOM      6  C8   11 d         -12.627 207.402 116.089  0.00  0.00     0.087 A 
ATOM      7  O3   11 d         -12.749 207.456 117.396  0.00  0.00    -0.309 OA
ATOM      8  C9   11 d         -11.971 208.333 115.282  0.00  0.00     0.040 A 
ATOM      9  C10  11 d         -11.931 208.095 113.893  0.00  0.00     0.027 A 
ATOM     10  C11  11 d         -12.553 206.948 113.336  0.00  0.00     0.075 A 
ATOM     11  C16  11 d         -13.215 206.020 114.169  0.00  0.00     0.040 A 
ATOM     12  C17  11 d         -14.417 204.380 116.753  0.00  0.00     0.017 A 
ATOM     13  C18  11 d         -14.765 203.959 118.053  0.00  0.00     0.031 A 
ENDROOT
BRANCH   1  14
ATOM     14  N1   11 d         -14.746 204.362 120.500  0.00  0.00    -0.280 N 
ATOM     15  H1   11 d         -14.392 203.497 120.841  0.00  0.00     0.179 HD
BRANCH  14  16
ATOM     16  S1   11 d         -15.696 205.256 121.568  0.00  0.00     0.266 S 
ATOM     17  O1   11 d         -15.288 204.941 123.009  0.00  0.00    -0.200 OA
ATOM     18  O2   11 d         -15.425 206.744 121.340  0.00  0.00    -0.200 OA
BRANCH  16  19
ATOM     19  C2   11 d         -17.445 204.865 121.371  0.00  0.00     0.116 A 
ATOM     20  C1   11 d         -18.437 205.235 122.311  0.00  0.00     0.091 A 
ATOM     21  C22  11 d         -19.784 204.929 122.049  0.00  0.00     0.041 A 
ATOM     22  C21  11 d         -20.140 204.205 120.903  0.00  0.00     0.045 A 
ATOM     23  C20  11 d         -19.155 203.814 119.988  0.00  0.00     0.118 A 
ATOM     24  C19  11 d         -17.815 204.154 120.215  0.00  0.00     0.070 A 
ATOM     25  F1   11 d         -19.500 203.110 118.872  0.00  0.00    -0.206 F 
BRANCH  20  26
ATOM     26  O6   11 d         -18.139 206.048 123.439  0.00  0.00    -0.354 OA
ATOM     27  C23  11 d         -18.470 205.337 124.660  0.00  0.00     0.210 C 
ENDBRANCH  20  26
ENDBRANCH  16  19
ENDBRANCH  14  16
ENDBRANCH   1  14
BRANCH  10  28
ATOM     28  S2   11 d         -12.508 206.666 111.563  0.00  0.00     0.243 S 
ATOM     29  O4   11 d         -11.791 205.343 111.280  0.00  0.00    -0.206 OA
ATOM     30  O5   11 d         -11.699 207.766 110.871  0.00  0.00    -0.206 OA
BRANCH  28  31
ATOM     31  N2   11 d         -14.130 206.609 110.866  0.00  0.00    -0.206 NA
ATOM     32  C12  11 d         -15.033 207.640 111.448  0.00  0.00     0.107 C 
ATOM     33  C13  11 d         -16.097 206.888 112.230  0.00  0.00     0.017 C 
ATOM     34  C14  11 d         -16.223 205.591 111.459  0.00  0.00     0.017 C 
ATOM     35  C15  11 d         -14.779 205.289 111.096  0.00  0.00     0.107 C 
ENDBRANCH  28  31
ENDBRANCH  10  28
TORSDOF 6
ENDMDL
MODEL 13
REMARK VINA RESULT:      -8.5      3.343      4.267
REMARK  6 active torsions:
REMARK  status: ('A' for Active; 'I' for Inactive)
REMARK    1  A    between atoms: C1_1  and  O6_33 
REMARK    2  A    between atoms: C2_2  and  S1_3 
REMARK    3  A    between atoms: S1_3  and  N1_6 
REMARK    4  A    between atoms: N1_6  and  C3_7 
REMARK    5  A    between atoms: C11_16  and  S2_17 
REMARK    6  A    between atoms: S2_17  and  N2_18 
ROOT
ATOM      1  C3   11 d          -8.022 209.345 115.283  0.00  0.00     0.045 A 
ATOM      2  C4   11 d          -7.873 209.465 113.878  0.00  0.00     0.068 A 
ATOM      3  C5   11 d          -8.869 208.952 113.048  0.00  0.00     0.089 A 
ATOM      4  C6   11 d          -9.999 208.347 113.575  0.00  0.00     0.011 A 
ATOM      5  C7   11 d         -10.735 207.958 112.476  0.00  0.00     0.012 A 
ATOM      6  C8   11 d          -9.976 208.353 111.384  0.00  0.00     0.087 A 
ATOM      7  O3   11 d          -8.862 208.956 111.735  0.00  0.00    -0.309 OA
ATOM      8  C9   11 d         -10.399 208.096 110.080  0.00  0.00     0.040 A 
ATOM      9  C10  11 d         -11.624 207.421 109.901  0.00  0.00     0.027 A 
ATOM     10  C11  11 d         -12.404 207.027 111.018  0.00  0.00     0.075 A 
ATOM     11  C16  11 d         -11.961 207.301 112.331  0.00  0.00     0.040 A 
ATOM     12  C17  11 d         -10.196 208.216 114.950  0.00  0.00     0.017 A 
ATOM     13  C18  11 d          -9.192 208.714 115.804  0.00  0.00     0.031 A 
ENDROOT
BRANCH   1  14
ATOM     14  N1   11 d          -6.995 209.830 116.088  0.00  0.00    -0.280 N 
ATOM     15  H1   11 d          -6.716 210.781 115.994  0.00  0.00     0.179 HD
BRANCH  14  16
ATOM     16  S1   11 d          -6.156 208.913 117.227  0.00  0.00     0.266 S 
ATOM     17  O1   11 d          -5.395 209.840 118.178  0.00  0.00    -0.200 OA
ATOM     18  O2   11 d          -7.168 208.135 118.071  0.00  0.00    -0.200 OA
BRANCH  16  19
ATOM     19  C2   11 d          -4.971 207.810 116.433  0.00  0.00     0.116 A 
ATOM     20  C1   11 d          -4.323 208.113 115.211  0.00  0.00     0.091 A 
ATOM     21  C22  11 d          -3.375 207.213 114.692  0.00  0.00     0.041 A 
ATOM     22  C21  11 d          -3.122 205.994 115.337  0.00  0.00     0.045 A 
ATOM     23  C20  11 d          -3.786 205.683 116.530  0.00  0.00     0.118 A 
ATOM     24  C19  11 d          -4.697 206.592 117.082  0.00  0.00     0.070 A 
ATOM     25  F1   11 d          -3.540 204.498 117.159  0.00  0.00    -0.206 F 
BRANCH  20  26
ATOM     26  O6   11 d          -4.476 209.372 114.569  0.00  0.00    -0.354 OA
ATOM     27  C23  11 d          -3.889 209.323 113.243  0.00  0.00     0.210 C 
ENDBRANCH  20  26
ENDBRANCH  16  19
ENDBRANCH  14  16
ENDBRANCH   1  14
BRANCH  10  28
ATOM     28  S2   11 d         -13.970 206.182 110.775  0.00  0.00     0.243 S 
ATOM     29  O4   11 d         -13.827 204.720 111.209  0.00  0.00    -0.206 OA
ATOM     30  O5   11 d         -14.341 206.169 109.290  0.00  0.00    -0.206 OA
BRANCH  28  31
ATOM     31  N2   11 d         -15.274 206.937 111.696  0.00  0.00    -0.206 NA
ATOM     32  C12  11 d         -15.087 206.791 113.165  0.00  0.00     0.107 C 
ATOM     33  C13  11 d         -16.206 205.886 113.654  0.00  0.00     0.017 C 
ATOM     34  C14  11 d         -17.331 206.197 112.690  0.00  0.00     0.017 C 
ATOM     35  C15  11 d         -16.596 206.335 111.368  0.00  0.00     0.107 C 
ENDBRANCH  28  31
ENDBRANCH  10  28
TORSDOF 6
ENDMDL
MODEL 14
REMARK VINA RESULT:      -8.5      6.540     10.283
REMARK  6 active torsions:
REMARK  status: ('A' for Active; 'I' for Inactive)
REMARK    1  A    between atoms: C1_1  and  O6_33 
REMARK    2  A    between atoms: C2_2  and  S1_3 
REMARK    3  A    between atoms: S1_3  and  N1_6 
REMARK    4  A    between atoms: N1_6  and  C3_7 
REMARK    5  A    between atoms: C11_16  and  S2_17 
REMARK    6  A    between atoms: S2_17  and  N2_18 
ROOT
ATOM      1  C3   11 d         -13.326 206.196 116.868  0.00  0.00     0.045 A 
ATOM      2  C4   11 d         -14.000 205.010 117.254  0.00  0.00     0.068 A 
ATOM      3  C5   11 d         -14.435 204.880 118.573  0.00  0.00     0.089 A 
ATOM      4  C6   11 d         -14.232 205.892 119.496  0.00  0.00     0.011 A 
ATOM      5  C7   11 d         -14.769 205.411 120.671  0.00  0.00     0.012 A 
ATOM      6  C8   11 d         -15.237 204.144 120.351  0.00  0.00     0.087 A 
ATOM      7  O3   11 d         -15.041 203.837 119.089  0.00  0.00    -0.309 OA
ATOM      8  C9   11 d         -15.831 203.330 121.317  0.00  0.00     0.040 A 
ATOM      9  C10  11 d         -15.942 203.831 122.630  0.00  0.00     0.027 A 
ATOM     10  C11  11 d         -15.473 205.130 122.952  0.00  0.00     0.075 A 
ATOM     11  C16  11 d         -14.878 205.940 121.960  0.00  0.00     0.040 A 
ATOM     12  C17  11 d         -13.584 207.082 119.162  0.00  0.00     0.017 A 
ATOM     13  C18  11 d         -13.124 207.225 117.837  0.00  0.00     0.031 A 
ENDROOT
BRANCH   1  14
ATOM     14  N1   11 d         -12.869 206.285 115.556  0.00  0.00    -0.280 N 
ATOM     15  H1   11 d         -12.525 205.466 115.108  0.00  0.00     0.179 HD
BRANCH  14  16
ATOM     16  S1   11 d         -12.838 207.704 114.647  0.00  0.00     0.266 S 
ATOM     17  O1   11 d         -13.906 208.672 115.163  0.00  0.00    -0.200 OA
ATOM     18  O2   11 d         -11.482 208.385 114.845  0.00  0.00    -0.200 OA
BRANCH  16  19
ATOM     19  C2   11 d         -13.162 207.372 112.905  0.00  0.00     0.116 A 
ATOM     20  C1   11 d         -14.461 207.171 112.379  0.00  0.00     0.091 A 
ATOM     21  C22  11 d         -14.622 206.966 110.997  0.00  0.00     0.041 A 
ATOM     22  C21  11 d         -13.504 206.890 110.153  0.00  0.00     0.045 A 
ATOM     23  C20  11 d         -12.218 207.059 110.680  0.00  0.00     0.118 A 
ATOM     24  C19  11 d         -12.049 207.311 112.047  0.00  0.00     0.070 A 
ATOM     25  F1   11 d         -11.130 206.987 109.860  0.00  0.00    -0.206 F 
BRANCH  20  26
ATOM     26  O6   11 d         -15.629 207.330 113.174  0.00  0.00    -0.354 OA
ATOM     27  C23  11 d         -16.161 206.028 113.533  0.00  0.00     0.210 C 
ENDBRANCH  20  26
ENDBRANCH  16  19
ENDBRANCH  14  16
ENDBRANCH   1  14
BRANCH  10  28
ATOM     28  S2   11 d         -15.635 205.761 124.626  0.00  0.00     0.243 S 
ATOM     29  O4   11 d         -14.895 207.097 124.735  0.00  0.00    -0.206 OA
ATOM     30  O5   11 d         -14.971 204.804 125.620  0.00  0.00    -0.206 OA
BRANCH  28  31
ATOM     31  N2   11 d         -17.326 205.993 125.079  0.00  0.00    -0.206 NA
ATOM     32  C12  11 d         -17.927 204.766 125.670  0.00  0.00     0.107 C 
ATOM     33  C13  11 d         -18.981 204.285 124.686  0.00  0.00     0.017 C 
ATOM     34  C14  11 d         -19.456 205.575 124.051  0.00  0.00     0.017 C 
ATOM     35  C15  11 d         -18.163 206.359 123.903  0.00  0.00     0.107 C 
ENDBRANCH  28  31
ENDBRANCH  10  28
TORSDOF 6
ENDMDL
MODEL 15
REMARK VINA RESULT:      -8.5      7.674     11.970
REMARK  6 active torsions:
REMARK  status: ('A' for Active; 'I' for Inactive)
REMARK    1  A    between atoms: C1_1  and  O6_33 
REMARK    2  A    between atoms: C2_2  and  S1_3 
REMARK    3  A    between atoms: S1_3  and  N1_6 
REMARK    4  A    between atoms: N1_6  and  C3_7 
REMARK    5  A    between atoms: C11_16  and  S2_17 
REMARK    6  A    between atoms: S2_17  and  N2_18 
ROOT
ATOM      1  C3   11 d         -14.525 204.551 119.118  0.00  0.00     0.045 A 
ATOM      2  C4   11 d         -14.162 205.894 118.842  0.00  0.00     0.068 A 
ATOM      3  C5   11 d         -14.155 206.332 117.518  0.00  0.00     0.089 A 
ATOM      4  C6   11 d         -14.511 205.485 116.481  0.00  0.00     0.011 A 
ATOM      5  C7   11 d         -14.373 206.246 115.341  0.00  0.00     0.012 A 
ATOM      6  C8   11 d         -13.934 207.483 115.792  0.00  0.00     0.087 A 
ATOM      7  O3   11 d         -13.814 207.529 117.100  0.00  0.00    -0.309 OA
ATOM      8  C9   11 d         -13.654 208.519 114.901  0.00  0.00     0.040 A 
ATOM      9  C10  11 d         -13.830 208.275 113.523  0.00  0.00     0.027 A 
ATOM     10  C11  11 d         -14.289 207.014 113.064  0.00  0.00     0.075 A 
ATOM     11  C16  11 d         -14.571 205.979 113.983  0.00  0.00     0.040 A 
ATOM     12  C17  11 d         -14.886 204.159 116.703  0.00  0.00     0.017 A 
ATOM     13  C18  11 d         -14.884 203.694 118.034  0.00  0.00     0.031 A 
ENDROOT
BRANCH   1  14
ATOM     14  N1   11 d         -14.486 204.128 120.443  0.00  0.00    -0.280 N 
ATOM     15  H1   11 d         -13.605 203.933 120.862  0.00  0.00     0.179 HD
BRANCH  14  16
ATOM     16  S1   11 d         -15.844 203.900 121.416  0.00  0.00     0.266 S 
ATOM     17  O1   11 d         -16.954 204.863 120.987  0.00  0.00    -0.200 OA
ATOM     18  O2   11 d         -16.372 202.481 121.197  0.00  0.00    -0.200 OA
BRANCH  16  19
ATOM     19  C2   11 d         -15.463 204.203 123.151  0.00  0.00     0.116 A 
ATOM     20  C1   11 d         -14.145 204.366 123.643  0.00  0.00     0.091 A 
ATOM     21  C22  11 d         -13.947 204.648 125.006  0.00  0.00     0.041 A 
ATOM     22  C21  11 d         -15.035 204.699 125.888  0.00  0.00     0.045 A 
ATOM     23  C20  11 d         -16.335 204.509 125.406  0.00  0.00     0.118 A 
ATOM     24  C19  11 d         -16.549 204.274 124.042  0.00  0.00     0.070 A 
ATOM     25  F1   11 d         -17.396 204.560 126.263  0.00  0.00    -0.206 F 
BRANCH  20  26
ATOM     26  O6   11 d         -13.019 204.415 122.776  0.00  0.00    -0.354 OA
ATOM     27  C23  11 d         -12.142 203.289 123.044  0.00  0.00     0.210 C 
ENDBRANCH  20  26
ENDBRANCH  16  19
ENDBRANCH  14  16
ENDBRANCH   1  14
BRANCH  10  28
ATOM     28  S2   11 d         -14.524 206.722 111.308  0.00  0.00     0.243 S 
ATOM     29  O4   11 d         -15.217 207.936 110.683  0.00  0.00    -0.206 OA
ATOM     30  O5   11 d         -15.449 205.522 111.088  0.00  0.00    -0.206 OA
BRANCH  28  31
ATOM     31  N2   11 d         -12.991 206.437 110.479  0.00  0.00    -0.206 NA
ATOM     32  C12  11 d         -11.849 206.319 111.426  0.00  0.00     0.107 C 
ATOM     33  C13  11 d         -10.959 207.526 111.179  0.00  0.00     0.017 C 
ATOM     34  C14  11 d         -11.172 207.802 109.706  0.00  0.00     0.017 C 
ATOM     35  C15  11 d         -12.661 207.545 109.541  0.00  0.00     0.107 C 
ENDBRANCH  28  31
ENDBRANCH  10  28
TORSDOF 6
ENDMDL
MODEL 16
REMARK VINA RESULT:      -8.4      5.597     11.956
REMARK  6 active torsions:
REMARK  status: ('A' for Active; 'I' for Inactive)
REMARK    1  A    between atoms: C1_1  and  O6_33 
REMARK    2  A    between atoms: C2_2  and  S1_3 
REMARK    3  A    between atoms: S1_3  and  N1_6 
REMARK    4  A    between atoms: N1_6  and  C3_7 
REMARK    5  A    between atoms: C11_16  and  S2_17 
REMARK    6  A    between atoms: S2_17  and  N2_18 
ROOT
ATOM      1  C3   11 d         -13.548 205.448 118.591  0.00  0.00     0.045 A 
ATOM      2  C4   11 d         -13.947 205.262 117.243  0.00  0.00     0.068 A 
ATOM      3  C5   11 d         -13.167 205.812 116.227  0.00  0.00     0.089 A 
ATOM      4  C6   11 d         -12.009 206.516 116.514  0.00  0.00     0.011 A 
ATOM      5  C7   11 d         -11.524 206.913 115.287  0.00  0.00     0.012 A 
ATOM      6  C8   11 d         -12.441 206.421 114.369  0.00  0.00     0.087 A 
ATOM      7  O3   11 d         -13.419 205.755 114.940  0.00  0.00    -0.309 OA
ATOM      8  C9   11 d         -12.290 206.656 113.002  0.00  0.00     0.040 A 
ATOM      9  C10  11 d         -11.177 207.410 112.577  0.00  0.00     0.027 A 
ATOM     10  C11  11 d         -10.234 207.903 113.516  0.00  0.00     0.075 A 
ATOM     11  C16  11 d         -10.402 207.650 114.895  0.00  0.00     0.040 A 
ATOM     12  C17  11 d         -11.569 206.716 117.824  0.00  0.00     0.017 A 
ATOM     13  C18  11 d         -12.354 206.181 118.865  0.00  0.00     0.031 A 
ENDROOT
BRANCH   1  14
ATOM     14  N1   11 d         -14.366 204.922 119.588  0.00  0.00    -0.280 N 
ATOM     15  H1   11 d         -14.657 203.973 119.523  0.00  0.00     0.179 HD
BRANCH  14  16
ATOM     16  S1   11 d         -14.926 205.788 120.921  0.00  0.00     0.266 S 
ATOM     17  O1   11 d         -14.014 205.532 122.124  0.00  0.00    -0.200 OA
ATOM     18  O2   11 d         -14.844 207.283 120.606  0.00  0.00    -0.200 OA
BRANCH  16  19
ATOM     19  C2   11 d         -16.603 205.296 121.362  0.00  0.00     0.116 A 
ATOM     20  C1   11 d         -17.251 205.714 122.550  0.00  0.00     0.091 A 
ATOM     21  C22  11 d         -18.580 205.319 122.787  0.00  0.00     0.041 A 
ATOM     22  C21  11 d         -19.239 204.464 121.892  0.00  0.00     0.045 A 
ATOM     23  C20  11 d         -18.587 204.029 120.732  0.00  0.00     0.118 A 
ATOM     24  C19  11 d         -17.281 204.453 120.462  0.00  0.00     0.070 A 
ATOM     25  F1   11 d         -19.228 203.198 119.860  0.00  0.00    -0.206 F 
BRANCH  20  26
ATOM     26  O6   11 d         -16.660 206.652 123.440  0.00  0.00    -0.354 OA
ATOM     27  C23  11 d         -16.674 206.124 124.792  0.00  0.00     0.210 C 
ENDBRANCH  20  26
ENDBRANCH  16  19
ENDBRANCH  14  16
ENDBRANCH   1  14
BRANCH  10  28
ATOM     28  S2   11 d          -8.812 208.848 112.959  0.00  0.00     0.243 S 
ATOM     29  O4   11 d          -9.156 210.340 112.989  0.00  0.00    -0.206 OA
ATOM     30  O5   11 d          -8.479 208.498 111.506  0.00  0.00    -0.206 OA
BRANCH  28  31
ATOM     31  N2   11 d          -7.394 208.557 113.970  0.00  0.00    -0.206 NA
ATOM     32  C12  11 d          -7.278 209.543 115.079  0.00  0.00     0.107 C 
ATOM     33  C13  11 d          -6.038 210.373 114.790  0.00  0.00     0.017 C 
ATOM     34  C14  11 d          -5.144 209.393 114.060  0.00  0.00     0.017 C 
ATOM     35  C15  11 d          -6.133 208.644 113.183  0.00  0.00     0.107 C 
ENDBRANCH  28  31
ENDBRANCH  10  28
TORSDOF 6
ENDMDL
MODEL 17
REMARK VINA RESULT:      -8.4      5.430      9.221
REMARK  6 active torsions:
REMARK  status: ('A' for Active; 'I' for Inactive)
REMARK    1  A    between atoms: C1_1  and  O6_33 
REMARK    2  A    between atoms: C2_2  and  S1_3 
REMARK    3  A    between atoms: S1_3  and  N1_6 
REMARK    4  A    between atoms: N1_6  and  C3_7 
REMARK    5  A    between atoms: C11_16  and  S2_17 
REMARK    6  A    between atoms: S2_17  and  N2_18 
ROOT
ATOM      1  C3   11 d         -12.860 205.694 116.474  0.00  0.00     0.045 A 
ATOM      2  C4   11 d         -13.812 204.688 116.778  0.00  0.00     0.068 A 
ATOM      3  C5   11 d         -14.322 204.613 118.074  0.00  0.00     0.089 A 
ATOM      4  C6   11 d         -13.928 205.510 119.052  0.00  0.00     0.011 A 
ATOM      5  C7   11 d         -14.615 205.124 120.183  0.00  0.00     0.012 A 
ATOM      6  C8   11 d         -15.354 204.019 119.786  0.00  0.00     0.087 A 
ATOM      7  O3   11 d         -15.180 203.724 118.518  0.00  0.00    -0.309 OA
ATOM      8  C9   11 d         -16.166 203.331 120.690  0.00  0.00     0.040 A 
ATOM      9  C10  11 d         -16.214 203.791 122.022  0.00  0.00     0.027 A 
ATOM     10  C11  11 d         -15.465 204.928 122.423  0.00  0.00     0.075 A 
ATOM     11  C16  11 d         -14.653 205.613 121.493  0.00  0.00     0.040 A 
ATOM     12  C17  11 d         -13.003 206.524 118.799  0.00  0.00     0.017 A 
ATOM     13  C18  11 d         -12.464 206.606 117.499  0.00  0.00     0.031 A 
ENDROOT
BRANCH   1  14
ATOM     14  N1   11 d         -12.337 205.724 115.184  0.00  0.00    -0.280 N 
ATOM     15  H1   11 d         -11.455 205.298 115.011  0.00  0.00     0.179 HD
BRANCH  14  16
ATOM     16  S1   11 d         -13.089 206.451 113.862  0.00  0.00     0.266 S 
ATOM     17  O1   11 d         -13.906 205.409 113.095  0.00  0.00    -0.200 OA
ATOM     18  O2   11 d         -14.073 207.505 114.376  0.00  0.00    -0.200 OA
BRANCH  16  19
ATOM     19  C2   11 d         -11.878 207.170 112.736  0.00  0.00     0.116 A 
ATOM     20  C1   11 d         -10.710 207.841 113.173  0.00  0.00     0.091 A 
ATOM     21  C22  11 d          -9.797 208.328 112.221  0.00  0.00     0.041 A 
ATOM     22  C21  11 d         -10.069 208.215 110.850  0.00  0.00     0.045 A 
ATOM     23  C20  11 d         -11.239 207.577 110.420  0.00  0.00     0.118 A 
ATOM     24  C19  11 d         -12.133 207.047 111.358  0.00  0.00     0.070 A 
ATOM     25  F1   11 d         -11.505 207.466 109.087  0.00  0.00    -0.206 F 
BRANCH  20  26
ATOM     26  O6   11 d         -10.344 207.900 114.546  0.00  0.00    -0.354 OA
ATOM     27  C23  11 d         -10.784 209.158 115.119  0.00  0.00     0.210 C 
ENDBRANCH  20  26
ENDBRANCH  16  19
ENDBRANCH  14  16
ENDBRANCH   1  14
BRANCH  10  28
ATOM     28  S2   11 d         -15.548 205.512 124.119  0.00  0.00     0.243 S 
ATOM     29  O4   11 d         -17.014 205.725 124.508  0.00  0.00    -0.206 OA
ATOM     30  O5   11 d         -14.853 206.871 124.247  0.00  0.00    -0.206 OA
BRANCH  28  31
ATOM     31  N2   11 d         -14.808 204.370 125.244  0.00  0.00    -0.206 NA
ATOM     32  C12  11 d         -14.386 205.020 126.515  0.00  0.00     0.107 C 
ATOM     33  C13  11 d         -12.868 204.962 126.545  0.00  0.00     0.017 C 
ATOM     34  C14  11 d         -12.568 203.690 125.781  0.00  0.00     0.017 C 
ATOM     35  C15  11 d         -13.593 203.736 124.661  0.00  0.00     0.107 C 
ENDBRANCH  28  31
ENDBRANCH  10  28
TORSDOF 6
ENDMDL
MODEL 18
REMARK VINA RESULT:      -8.1      5.443     12.035
REMARK  6 active torsions:
REMARK  status: ('A' for Active; 'I' for Inactive)
REMARK    1  A    between atoms: C1_1  and  O6_33 
REMARK    2  A    between atoms: C2_2  and  S1_3 
REMARK    3  A    between atoms: S1_3  and  N1_6 
REMARK    4  A    between atoms: N1_6  and  C3_7 
REMARK    5  A    between atoms: C11_16  and  S2_17 
REMARK    6  A    between atoms: S2_17  and  N2_18 
ROOT
ATOM      1  C3   11 d         -12.829 206.106 118.680  0.00  0.00     0.045 A 
ATOM      2  C4   11 d         -13.020 206.699 117.407  0.00  0.00     0.068 A 
ATOM      3  C5   11 d         -11.937 207.313 116.779  0.00  0.00     0.089 A 
ATOM      4  C6   11 d         -10.685 207.335 117.370  0.00  0.00     0.011 A 
ATOM      5  C7   11 d          -9.888 208.026 116.483  0.00  0.00     0.012 A 
ATOM      6  C8   11 d         -10.736 208.369 115.440  0.00  0.00     0.087 A 
ATOM      7  O3   11 d         -11.961 207.930 115.620  0.00  0.00    -0.309 OA
ATOM      8  C9   11 d         -10.277 209.112 114.352  0.00  0.00     0.040 A 
ATOM      9  C10  11 d          -8.924 209.508 114.342  0.00  0.00     0.027 A 
ATOM     10  C11  11 d          -8.056 209.147 115.404  0.00  0.00     0.075 A 
ATOM     11  C16  11 d          -8.538 208.391 116.495  0.00  0.00     0.040 A 
ATOM     12  C17  11 d         -10.444 206.756 118.617  0.00  0.00     0.017 A 
ATOM     13  C18  11 d         -11.531 206.145 119.274  0.00  0.00     0.031 A 
ENDROOT
BRANCH   1  14
ATOM     14  N1   11 d         -13.935 205.535 119.303  0.00  0.00    -0.280 N 
ATOM     15  H1   11 d         -14.357 204.731 118.895  0.00  0.00     0.179 HD
BRANCH  14  16
ATOM     16  S1   11 d         -14.643 206.115 120.719  0.00  0.00     0.266 S 
ATOM     17  O1   11 d         -13.712 205.854 121.906  0.00  0.00    -0.200 OA
ATOM     18  O2   11 d         -14.805 207.632 120.600  0.00  0.00    -0.200 OA
BRANCH  16  19
ATOM     19  C2   11 d         -16.220 205.304 121.040  0.00  0.00     0.116 A 
ATOM     20  C1   11 d         -16.571 204.041 120.504  0.00  0.00     0.091 A 
ATOM     21  C22  11 d         -17.806 203.464 120.850  0.00  0.00     0.041 A 
ATOM     22  C21  11 d         -18.714 204.158 121.662  0.00  0.00     0.045 A 
ATOM     23  C20  11 d         -18.378 205.419 122.167  0.00  0.00     0.118 A 
ATOM     24  C19  11 d         -17.132 205.984 121.868  0.00  0.00     0.070 A 
ATOM     25  F1   11 d         -19.261 206.095 122.958  0.00  0.00    -0.206 F 
BRANCH  20  26
ATOM     26  O6   11 d         -15.650 203.259 119.754  0.00  0.00    -0.354 OA
ATOM     27  C23  11 d         -16.304 202.727 118.573  0.00  0.00     0.210 C 
ENDBRANCH  20  26
ENDBRANCH  16  19
ENDBRANCH  14  16
ENDBRANCH   1  14
BRANCH  10  28
ATOM     28  S2   11 d          -6.330 209.644 115.370  0.00  0.00     0.243 S 
ATOM     29  O4   11 d          -5.661 209.233 116.684  0.00  0.00    -0.206 OA
ATOM     30  O5   11 d          -6.219 211.169 115.274  0.00  0.00    -0.206 OA
BRANCH  28  31
ATOM     31  N2   11 d          -5.462 208.909 114.019  0.00  0.00    -0.206 NA
ATOM     32  C12  11 d          -4.881 207.585 114.374  0.00  0.00     0.107 C 
ATOM     33  C13  11 d          -3.371 207.756 114.346  0.00  0.00     0.017 C 
ATOM     34  C14  11 d          -3.176 208.821 113.288  0.00  0.00     0.017 C 
ATOM     35  C15  11 d          -4.333 209.767 113.563  0.00  0.00     0.107 C 
ENDBRANCH  28  31
ENDBRANCH  10  28
TORSDOF 6
ENDMDL
MODEL 19
REMARK VINA RESULT:      -7.9     10.090     14.701
REMARK  6 active torsions:
REMARK  status: ('A' for Active; 'I' for Inactive)
REMARK    1  A    between atoms: C1_1  and  O6_33 
REMARK    2  A    between atoms: C2_2  and  S1_3 
REMARK    3  A    between atoms: S1_3  and  N1_6 
REMARK    4  A    between atoms: N1_6  and  C3_7 
REMARK    5  A    between atoms: C11_16  and  S2_17 
REMARK    6  A    between atoms: S2_17  and  N2_18 
ROOT
ATOM      1  C3   11 d         -17.832 205.504 121.508  0.00  0.00     0.045 A 
ATOM      2  C4   11 d         -18.321 204.310 120.921  0.00  0.00     0.068 A 
ATOM      3  C5   11 d         -19.231 203.531 121.636  0.00  0.00     0.089 A 
ATOM      4  C6   11 d         -19.670 203.914 122.892  0.00  0.00     0.011 A 
ATOM      5  C7   11 d         -20.530 202.912 123.286  0.00  0.00     0.012 A 
ATOM      6  C8   11 d         -20.523 202.007 122.235  0.00  0.00     0.087 A 
ATOM      7  O3   11 d         -19.747 202.389 121.245  0.00  0.00    -0.309 OA
ATOM      8  C9   11 d         -21.269 200.829 122.291  0.00  0.00     0.040 A 
ATOM      9  C10  11 d         -22.034 200.583 123.450  0.00  0.00     0.027 A 
ATOM     10  C11  11 d         -22.050 201.515 124.519  0.00  0.00     0.075 A 
ATOM     11  C16  11 d         -21.290 202.704 124.441  0.00  0.00     0.040 A 
ATOM     12  C17  11 d         -19.227 205.087 123.507  0.00  0.00     0.017 A 
ATOM     13  C18  11 d         -18.295 205.879 122.806  0.00  0.00     0.031 A 
ENDROOT
BRANCH   1  14
ATOM     14  N1   11 d         -16.896 206.243 120.791  0.00  0.00    -0.280 N 
ATOM     15  H1   11 d         -17.215 206.925 120.140  0.00  0.00     0.179 HD
BRANCH  14  16
ATOM     16  S1   11 d         -15.225 206.064 120.929  0.00  0.00     0.266 S 
ATOM     17  O1   11 d         -14.624 207.313 121.579  0.00  0.00    -0.200 OA
ATOM     18  O2   11 d         -14.933 204.887 121.862  0.00  0.00    -0.200 OA
BRANCH  16  19
ATOM     19  C2   11 d         -14.457 205.834 119.315  0.00  0.00     0.116 A 
ATOM     20  C1   11 d         -14.528 204.624 118.583  0.00  0.00     0.091 A 
ATOM     21  C22  11 d         -13.938 204.552 117.308  0.00  0.00     0.041 A 
ATOM     22  C21  11 d         -13.226 205.644 116.791  0.00  0.00     0.045 A 
ATOM     23  C20  11 d         -13.131 206.830 117.528  0.00  0.00     0.118 A 
ATOM     24  C19  11 d         -13.754 206.929 118.778  0.00  0.00     0.070 A 
ATOM     25  F1   11 d         -12.439 207.892 117.025  0.00  0.00    -0.206 F 
BRANCH  20  26
ATOM     26  O6   11 d         -15.314 203.524 119.022  0.00  0.00    -0.354 OA
ATOM     27  C23  11 d         -15.931 202.873 117.881  0.00  0.00     0.210 C 
ENDBRANCH  20  26
ENDBRANCH  16  19
ENDBRANCH  14  16
ENDBRANCH   1  14
BRANCH  10  28
ATOM     28  S2   11 d         -23.041 201.197 125.982  0.00  0.00     0.243 S 
ATOM     29  O4   11 d         -22.663 202.199 127.076  0.00  0.00    -0.206 OA
ATOM     30  O5   11 d         -22.738 199.802 126.535  0.00  0.00    -0.206 OA
BRANCH  28  31
ATOM     31  N2   11 d         -24.770 201.328 125.645  0.00  0.00    -0.206 NA
ATOM     32  C12  11 d         -25.324 200.088 125.036  0.00  0.00     0.107 C 
ATOM     33  C13  11 d         -25.727 200.448 123.616  0.00  0.00     0.017 C 
ATOM     34  C14  11 d         -26.113 201.907 123.740  0.00  0.00     0.017 C 
ATOM     35  C15  11 d         -25.061 202.439 124.698  0.00  0.00     0.107 C 
ENDBRANCH  28  31
ENDBRANCH  10  28
TORSDOF 6
ENDMDL
MODEL 20
REMARK VINA RESULT:      -7.9      5.643     11.260
REMARK  6 active torsions:
REMARK  status: ('A' for Active; 'I' for Inactive)
REMARK    1  A    between atoms: C1_1  and  O6_33 
REMARK    2  A    between atoms: C2_2  and  S1_3 
REMARK    3  A    between atoms: S1_3  and  N1_6 
REMARK    4  A    between atoms: N1_6  and  C3_7 
REMARK    5  A    between atoms: C11_16  and  S2_17 
REMARK    6  A    between atoms: S2_17  and  N2_18 
ROOT
ATOM      1  C3   11 d         -13.856 205.660 118.600  0.00  0.00     0.045 A 
ATOM      2  C4   11 d         -14.198 205.531 117.230  0.00  0.00     0.068 A 
ATOM      3  C5   11 d         -13.364 206.103 116.269  0.00  0.00     0.089 A 
ATOM      4  C6   11 d         -12.209 206.775 116.633  0.00  0.00     0.011 A 
ATOM      5  C7   11 d         -11.663 207.208 115.443  0.00  0.00     0.012 A 
ATOM      6  C8   11 d         -12.547 206.767 114.469  0.00  0.00     0.087 A 
ATOM      7  O3   11 d         -13.560 206.098 114.971  0.00  0.00    -0.309 OA
ATOM      8  C9   11 d         -12.332 207.049 113.119  0.00  0.00     0.040 A 
ATOM      9  C10  11 d         -11.189 207.797 112.771  0.00  0.00     0.027 A 
ATOM     10  C11  11 d         -10.281 208.238 113.768  0.00  0.00     0.075 A 
ATOM     11  C16  11 d         -10.514 207.939 115.129  0.00  0.00     0.040 A 
ATOM     12  C17  11 d         -11.824 206.920 117.967  0.00  0.00     0.017 A 
ATOM     13  C18  11 d         -12.663 206.361 118.953  0.00  0.00     0.031 A 
ENDROOT
BRANCH   1  14
ATOM     14  N1   11 d         -14.725 205.114 119.540  0.00  0.00    -0.280 N 
ATOM     15  H1   11 d         -15.072 204.193 119.398  0.00  0.00     0.179 HD
BRANCH  14  16
ATOM     16  S1   11 d         -15.258 205.910 120.926  0.00  0.00     0.266 S 
ATOM     17  O1   11 d         -14.722 207.344 120.938  0.00  0.00    -0.200 OA
ATOM     18  O2   11 d         -16.785 206.002 120.883  0.00  0.00    -0.200 OA
BRANCH  16  19
ATOM     19  C2   11 d         -14.690 205.076 122.420  0.00  0.00     0.116 A 
ATOM     20  C1   11 d         -13.324 204.833 122.704  0.00  0.00     0.091 A 
ATOM     21  C22  11 d         -12.971 204.218 123.918  0.00  0.00     0.041 A 
ATOM     22  C21  11 d         -13.961 203.784 124.812  0.00  0.00     0.045 A 
ATOM     23  C20  11 d         -15.312 203.998 124.515  0.00  0.00     0.118 A 
ATOM     24  C19  11 d         -15.674 204.652 123.331  0.00  0.00     0.070 A 
ATOM     25  F1   11 d         -16.276 203.578 125.384  0.00  0.00    -0.206 F 
BRANCH  20  26
ATOM     26  O6   11 d         -12.281 205.335 121.877  0.00  0.00    -0.354 OA
ATOM     27  C23  11 d         -11.016 204.737 122.262  0.00  0.00     0.210 C 
ENDBRANCH  20  26
ENDBRANCH  16  19
ENDBRANCH  14  16
ENDBRANCH   1  14
BRANCH  10  28
ATOM     28  S2   11 d          -8.821 209.177 113.309  0.00  0.00     0.243 S 
ATOM     29  O4   11 d          -8.557 210.250 114.369  0.00  0.00    -0.206 OA
ATOM     30  O5   11 d          -9.055 209.909 111.985  0.00  0.00    -0.206 OA
BRANCH  28  31
ATOM     31  N2   11 d          -7.396 208.144 113.160  0.00  0.00    -0.206 NA
ATOM     32  C12  11 d          -6.380 208.426 114.211  0.00  0.00     0.107 C 
ATOM     33  C13  11 d          -5.172 209.010 113.497  0.00  0.00     0.017 C 
ATOM     34  C14  11 d          -5.229 208.337 112.142  0.00  0.00     0.017 C 
ATOM     35  C15  11 d          -6.720 208.329 111.847  0.00  0.00     0.107 C 
ENDBRANCH  28  31
ENDBRANCH  10  28
TORSDOF 6
ENDMDL
