MODEL 1
REMARK VINA RESULT:      -7.1      0.000      0.000
REMARK  4 active torsions:
REMARK  status: ('A' for Active; 'I' for Inactive)
REMARK    1  A    between atoms: C1_1  and  N1_9 
REMARK    2  A    between atoms: C2_2  and  O1_8 
REMARK    3  A    between atoms: C8_10  and  C9_11 
REMARK    4  A    between atoms: C10_12  and  O2_17 
ROOT
ATOM      1  N1   11 d         -13.353 205.741 115.314  0.00  0.00    -0.257 NA
ATOM      2  C8   11 d         -14.341 205.344 114.539  0.00  0.00     0.131 C 
ENDROOT
BRANCH   1   3
ATOM      3  C1   11 d         -12.310 206.632 114.849  0.00  0.00     0.089 A 
ATOM      4  C2   11 d         -12.050 207.821 115.566  0.00  0.00     0.094 A 
ATOM      5  C3   11 d         -11.033 208.690 115.142  0.00  0.00     0.045 A 
ATOM      6  C4   11 d         -10.275 208.404 113.991  0.00  0.00    -0.059 A 
ATOM      7  C5   11 d         -10.494 207.191 113.313  0.00  0.00     0.009 A 
ATOM      8  C7   11 d          -9.127 209.293 113.601  0.00  0.00     0.048 C 
ATOM      9  C6   11 d         -11.505 206.315 113.735  0.00  0.00     0.035 A 
BRANCH   4  10
ATOM     10  O1   11 d         -12.798 208.166 116.720  0.00  0.00    -0.358 OA
ATOM     11  H7   11 d         -13.764 208.329 116.381  0.00  0.00     0.217 HD
ENDBRANCH   4  10
ENDBRANCH   1   3
BRANCH   2  12
ATOM     12  C9   11 d         -14.658 205.828 113.165  0.00  0.00     0.015 A 
ATOM     13  C10  11 d         -15.204 207.107 112.900  0.00  0.00     0.077 A 
ATOM     14  C11  11 d         -15.525 207.470 111.581  0.00  0.00     0.037 A 
ATOM     15  C12  11 d         -15.284 206.586 110.521  0.00  0.00     0.003 A 
ATOM     16  C13  11 d         -14.745 205.318 110.778  0.00  0.00     0.001 A 
ATOM     17  C14  11 d         -14.444 204.937 112.094  0.00  0.00     0.015 A 
BRANCH  13  18
ATOM     18  O2   11 d         -15.557 207.991 113.949  0.00  0.00    -0.360 OA
ATOM     19  H13  11 d         -14.673 208.446 114.237  0.00  0.00     0.217 HD
ENDBRANCH  13  18
ENDBRANCH   2  12
TORSDOF 4
ENDMDL
MODEL 2
REMARK VINA RESULT:      -6.8      2.130      4.680
REMARK  4 active torsions:
REMARK  status: ('A' for Active; 'I' for Inactive)
REMARK    1  A    between atoms: C1_1  and  N1_9 
REMARK    2  A    between atoms: C2_2  and  O1_8 
REMARK    3  A    between atoms: C8_10  and  C9_11 
REMARK    4  A    between atoms: C10_12  and  O2_17 
ROOT
ATOM      1  N1   11 d         -11.409 208.333 114.716  0.00  0.00    -0.257 NA
ATOM      2  C8   11 d         -11.361 207.859 115.944  0.00  0.00     0.131 C 
ENDROOT
BRANCH   1   3
ATOM      3  C1   11 d         -12.265 207.763 113.696  0.00  0.00     0.089 A 
ATOM      4  C2   11 d         -13.625 208.141 113.650  0.00  0.00     0.094 A 
ATOM      5  C3   11 d         -14.469 207.613 112.660  0.00  0.00     0.045 A 
ATOM      6  C4   11 d         -13.981 206.689 111.717  0.00  0.00    -0.059 A 
ATOM      7  C5   11 d         -12.614 206.361 111.727  0.00  0.00     0.009 A 
ATOM      8  C7   11 d         -14.869 206.204 110.604  0.00  0.00     0.048 C 
ATOM      9  C6   11 d         -11.763 206.888 112.709  0.00  0.00     0.035 A 
BRANCH   4  10
ATOM     10  O1   11 d         -14.171 209.053 114.589  0.00  0.00    -0.358 OA
ATOM     11  H7   11 d         -13.656 209.940 114.439  0.00  0.00     0.217 HD
ENDBRANCH   4  10
ENDBRANCH   1   3
BRANCH   2  12
ATOM     12  C9   11 d         -12.240 206.814 116.541  0.00  0.00     0.015 A 
ATOM     13  C10  11 d         -13.391 207.115 117.309  0.00  0.00     0.077 A 
ATOM     14  C11  11 d         -14.139 206.074 117.884  0.00  0.00     0.037 A 
ATOM     15  C12  11 d         -13.771 204.737 117.680  0.00  0.00     0.003 A 
ATOM     16  C13  11 d         -12.633 204.433 116.921  0.00  0.00     0.001 A 
ATOM     17  C14  11 d         -11.865 205.467 116.364  0.00  0.00     0.015 A 
BRANCH  13  18
ATOM     18  O2   11 d         -13.739 208.451 117.625  0.00  0.00    -0.360 OA
ATOM     19  H13  11 d         -13.165 209.042 116.999  0.00  0.00     0.217 HD
ENDBRANCH  13  18
ENDBRANCH   2  12
TORSDOF 4
ENDMDL
MODEL 3
REMARK VINA RESULT:      -6.8      0.617      4.647
REMARK  4 active torsions:
REMARK  status: ('A' for Active; 'I' for Inactive)
REMARK    1  A    between atoms: C1_1  and  N1_9 
REMARK    2  A    between atoms: C2_2  and  O1_8 
REMARK    3  A    between atoms: C8_10  and  C9_11 
REMARK    4  A    between atoms: C10_12  and  O2_17 
ROOT
ATOM      1  N1   11 d         -14.493 205.285 114.587  0.00  0.00    -0.257 NA
ATOM      2  C8   11 d         -13.510 205.732 115.342  0.00  0.00     0.131 C 
ENDROOT
BRANCH   1   3
ATOM      3  C1   11 d         -14.710 205.756 113.234  0.00  0.00     0.089 A 
ATOM      4  C2   11 d         -15.233 207.053 113.033  0.00  0.00     0.094 A 
ATOM      5  C3   11 d         -15.436 207.535 111.731  0.00  0.00     0.045 A 
ATOM      6  C4   11 d         -15.144 206.732 110.612  0.00  0.00    -0.059 A 
ATOM      7  C5   11 d         -14.567 205.465 110.813  0.00  0.00     0.009 A 
ATOM      8  C7   11 d         -15.274 207.294 109.223  0.00  0.00     0.048 C 
ATOM      9  C6   11 d         -14.356 204.979 112.112  0.00  0.00     0.035 A 
BRANCH   4  10
ATOM     10  O1   11 d         -15.563 207.894 114.126  0.00  0.00    -0.358 OA
ATOM     11  H7   11 d         -15.748 207.253 114.919  0.00  0.00     0.217 HD
ENDBRANCH   4  10
ENDBRANCH   1   3
BRANCH   2  12
ATOM     12  C9   11 d         -12.397 206.634 114.930  0.00  0.00     0.015 A 
ATOM     13  C10  11 d         -12.114 207.860 115.580  0.00  0.00     0.077 A 
ATOM     14  C11  11 d         -11.080 208.682 115.099  0.00  0.00     0.037 A 
ATOM     15  C12  11 d         -10.309 208.284 113.999  0.00  0.00     0.003 A 
ATOM     16  C13  11 d         -10.586 207.072 113.352  0.00  0.00     0.001 A 
ATOM     17  C14  11 d         -11.632 206.257 113.809  0.00  0.00     0.015 A 
BRANCH  13  18
ATOM     18  O2   11 d         -12.931 208.347 116.628  0.00  0.00    -0.360 OA
ATOM     19  H13  11 d         -12.380 209.094 117.085  0.00  0.00     0.217 HD
ENDBRANCH  13  18
ENDBRANCH   2  12
TORSDOF 4
ENDMDL
MODEL 4
REMARK VINA RESULT:      -6.7      2.041      3.362
REMARK  4 active torsions:
REMARK  status: ('A' for Active; 'I' for Inactive)
REMARK    1  A    between atoms: C1_1  and  N1_9 
REMARK    2  A    between atoms: C2_2  and  O1_8 
REMARK    3  A    between atoms: C8_10  and  C9_11 
REMARK    4  A    between atoms: C10_12  and  O2_17 
ROOT
ATOM      1  N1   11 d         -12.186 207.793 114.461  0.00  0.00    -0.257 NA
ATOM      2  C8   11 d         -12.730 207.809 113.262  0.00  0.00     0.131 C 
ENDROOT
BRANCH   1   3
ATOM      3  C1   11 d         -12.699 206.969 115.537  0.00  0.00     0.089 A 
ATOM      4  C2   11 d         -13.637 207.521 116.438  0.00  0.00     0.094 A 
ATOM      5  C3   11 d         -14.158 206.735 117.477  0.00  0.00     0.045 A 
ATOM      6  C4   11 d         -13.743 205.402 117.650  0.00  0.00    -0.059 A 
ATOM      7  C5   11 d         -12.856 204.836 116.717  0.00  0.00     0.009 A 
ATOM      8  C7   11 d         -14.380 204.542 118.708  0.00  0.00     0.048 C 
ATOM      9  C6   11 d         -12.334 205.613 115.672  0.00  0.00     0.035 A 
BRANCH   4  10
ATOM     10  O1   11 d         -14.073 208.864 116.320  0.00  0.00    -0.358 OA
ATOM     11  H7   11 d         -14.129 209.046 115.301  0.00  0.00     0.217 HD
ENDBRANCH   4  10
ENDBRANCH   1   3
BRANCH   2  12
ATOM     12  C9   11 d         -13.813 206.920 112.752  0.00  0.00     0.015 A 
ATOM     13  C10  11 d         -15.171 207.060 113.129  0.00  0.00     0.077 A 
ATOM     14  C11  11 d         -16.127 206.148 112.648  0.00  0.00     0.037 A 
ATOM     15  C12  11 d         -15.751 205.119 111.775  0.00  0.00     0.003 A 
ATOM     16  C13  11 d         -14.408 204.975 111.400  0.00  0.00     0.001 A 
ATOM     17  C14  11 d         -13.443 205.865 111.895  0.00  0.00     0.015 A 
BRANCH  13  18
ATOM     18  O2   11 d         -15.577 208.021 114.087  0.00  0.00    -0.360 OA
ATOM     19  H13  11 d         -14.701 208.400 114.486  0.00  0.00     0.217 HD
ENDBRANCH  13  18
ENDBRANCH   2  12
TORSDOF 4
ENDMDL
MODEL 5
REMARK VINA RESULT:      -6.7      2.242      3.925
REMARK  4 active torsions:
REMARK  status: ('A' for Active; 'I' for Inactive)
REMARK    1  A    between atoms: C1_1  and  N1_9 
REMARK    2  A    between atoms: C2_2  and  O1_8 
REMARK    3  A    between atoms: C8_10  and  C9_11 
REMARK    4  A    between atoms: C10_12  and  O2_17 
ROOT
ATOM      1  N1   11 d         -11.327 207.933 116.168  0.00  0.00    -0.257 NA
ATOM      2  C8   11 d         -11.382 208.410 114.941  0.00  0.00     0.131 C 
ENDROOT
BRANCH   1   3
ATOM      3  C1   11 d         -12.161 206.836 116.613  0.00  0.00     0.089 A 
ATOM      4  C2   11 d         -13.356 207.119 117.311  0.00  0.00     0.094 A 
ATOM      5  C3   11 d         -14.186 206.071 117.737  0.00  0.00     0.045 A 
ATOM      6  C4   11 d         -13.834 204.730 117.497  0.00  0.00    -0.059 A 
ATOM      7  C5   11 d         -12.675 204.452 116.750  0.00  0.00     0.009 A 
ATOM      8  C7   11 d         -14.777 203.620 117.874  0.00  0.00     0.048 C 
ATOM      9  C6   11 d         -11.843 205.494 116.316  0.00  0.00     0.035 A 
BRANCH   4  10
ATOM     10  O1   11 d         -13.747 208.452 117.596  0.00  0.00    -0.358 OA
ATOM     11  H7   11 d         -13.176 208.735 118.413  0.00  0.00     0.217 HD
ENDBRANCH   4  10
ENDBRANCH   1   3
BRANCH   2  12
ATOM     12  C9   11 d         -12.145 207.849 113.790  0.00  0.00     0.015 A 
ATOM     13  C10  11 d         -13.539 208.037 113.619  0.00  0.00     0.077 A 
ATOM     14  C11  11 d         -14.198 207.430 112.536  0.00  0.00     0.037 A 
ATOM     15  C12  11 d         -13.481 206.664 111.607  0.00  0.00     0.003 A 
ATOM     16  C13  11 d         -12.102 206.473 111.773  0.00  0.00     0.001 A 
ATOM     17  C14  11 d         -11.440 207.054 112.864  0.00  0.00     0.015 A 
BRANCH  13  18
ATOM     18  O2   11 d         -14.316 208.717 114.587  0.00  0.00    -0.360 OA
ATOM     19  H13  11 d         -14.609 209.601 114.135  0.00  0.00     0.217 HD
ENDBRANCH  13  18
ENDBRANCH   2  12
TORSDOF 4
ENDMDL
MODEL 6
REMARK VINA RESULT:      -6.7      2.377      3.740
REMARK  4 active torsions:
REMARK  status: ('A' for Active; 'I' for Inactive)
REMARK    1  A    between atoms: C1_1  and  N1_9 
REMARK    2  A    between atoms: C2_2  and  O1_8 
REMARK    3  A    between atoms: C8_10  and  C9_11 
REMARK    4  A    between atoms: C10_12  and  O2_17 
ROOT
ATOM      1  N1   11 d         -12.195 207.956 114.619  0.00  0.00    -0.257 NA
ATOM      2  C8   11 d         -12.682 207.988 113.395  0.00  0.00     0.131 C 
ENDROOT
BRANCH   1   3
ATOM      3  C1   11 d         -12.712 207.067 115.638  0.00  0.00     0.089 A 
ATOM      4  C2   11 d         -13.744 207.522 116.489  0.00  0.00     0.094 A 
ATOM      5  C3   11 d         -14.270 206.670 117.473  0.00  0.00     0.045 A 
ATOM      6  C4   11 d         -13.768 205.366 117.640  0.00  0.00    -0.059 A 
ATOM      7  C5   11 d         -12.784 204.894 116.752  0.00  0.00     0.009 A 
ATOM      8  C7   11 d         -14.404 204.432 118.632  0.00  0.00     0.048 C 
ATOM      9  C6   11 d         -12.257 205.737 115.763  0.00  0.00     0.035 A 
BRANCH   4  10
ATOM     10  O1   11 d         -14.270 208.833 116.377  0.00  0.00    -0.358 OA
ATOM     11  H7   11 d         -13.540 209.456 116.769  0.00  0.00     0.217 HD
ENDBRANCH   4  10
ENDBRANCH   1   3
BRANCH   2  12
ATOM     12  C9   11 d         -13.689 207.062 112.802  0.00  0.00     0.015 A 
ATOM     13  C10  11 d         -13.369 206.105 111.808  0.00  0.00     0.077 A 
ATOM     14  C11  11 d         -14.384 205.303 111.258  0.00  0.00     0.037 A 
ATOM     15  C12  11 d         -15.707 205.424 111.706  0.00  0.00     0.003 A 
ATOM     16  C13  11 d         -16.028 206.371 112.688  0.00  0.00     0.001 A 
ATOM     17  C14  11 d         -15.026 207.193 113.225  0.00  0.00     0.015 A 
BRANCH  13  18
ATOM     18  O2   11 d         -12.069 206.020 111.255  0.00  0.00    -0.360 OA
ATOM     19  H13  11 d         -11.655 205.157 111.651  0.00  0.00     0.217 HD
ENDBRANCH  13  18
ENDBRANCH   2  12
TORSDOF 4
ENDMDL
MODEL 7
REMARK VINA RESULT:      -6.6      2.406      3.230
REMARK  4 active torsions:
REMARK  status: ('A' for Active; 'I' for Inactive)
REMARK    1  A    between atoms: C1_1  and  N1_9 
REMARK    2  A    between atoms: C2_2  and  O1_8 
REMARK    3  A    between atoms: C8_10  and  C9_11 
REMARK    4  A    between atoms: C10_12  and  O2_17 
ROOT
ATOM      1  N1   11 d         -11.642 207.006 112.352  0.00  0.00    -0.257 NA
ATOM      2  C8   11 d         -12.404 206.763 111.305  0.00  0.00     0.131 C 
ENDROOT
BRANCH   1   3
ATOM      3  C1   11 d         -12.186 207.190 113.682  0.00  0.00     0.089 A 
ATOM      4  C2   11 d         -11.790 206.311 114.715  0.00  0.00     0.094 A 
ATOM      5  C3   11 d         -12.292 206.480 116.014  0.00  0.00     0.045 A 
ATOM      6  C4   11 d         -13.208 207.509 116.303  0.00  0.00    -0.059 A 
ATOM      7  C5   11 d         -13.554 208.420 115.289  0.00  0.00     0.009 A 
ATOM      8  C7   11 d         -13.665 207.740 117.718  0.00  0.00     0.048 C 
ATOM      9  C6   11 d         -13.052 208.260 113.989  0.00  0.00     0.035 A 
BRANCH   4  10
ATOM     10  O1   11 d         -10.886 205.246 114.472  0.00  0.00    -0.358 OA
ATOM     11  H7   11 d         -10.364 205.519 113.619  0.00  0.00     0.217 HD
ENDBRANCH   4  10
ENDBRANCH   1   3
BRANCH   2  12
ATOM     12  C9   11 d         -13.868 206.484 111.302  0.00  0.00     0.015 A 
ATOM     13  C10  11 d         -14.761 207.047 110.358  0.00  0.00     0.077 A 
ATOM     14  C11  11 d         -16.138 206.779 110.452  0.00  0.00     0.037 A 
ATOM     15  C12  11 d         -16.630 205.935 111.457  0.00  0.00     0.003 A 
ATOM     16  C13  11 d         -15.750 205.377 112.395  0.00  0.00     0.001 A 
ATOM     17  C14  11 d         -14.378 205.659 112.324  0.00  0.00     0.015 A 
BRANCH  13  18
ATOM     18  O2   11 d         -14.321 207.983 109.391  0.00  0.00    -0.360 OA
ATOM     19  H13  11 d         -14.870 207.779 108.538  0.00  0.00     0.217 HD
ENDBRANCH  13  18
ENDBRANCH   2  12
TORSDOF 4
ENDMDL
MODEL 8
REMARK VINA RESULT:      -6.2      4.314      7.903
REMARK  4 active torsions:
REMARK  status: ('A' for Active; 'I' for Inactive)
REMARK    1  A    between atoms: C1_1  and  N1_9 
REMARK    2  A    between atoms: C2_2  and  O1_8 
REMARK    3  A    between atoms: C8_10  and  C9_11 
REMARK    4  A    between atoms: C10_12  and  O2_17 
ROOT
ATOM      1  N1   11 d          -7.340 210.490 114.519  0.00  0.00    -0.257 NA
ATOM      2  C8   11 d          -6.231 210.132 115.134  0.00  0.00     0.131 C 
ENDROOT
BRANCH   1   3
ATOM      3  C1   11 d          -8.366 209.536 114.150  0.00  0.00     0.089 A 
ATOM      4  C2   11 d          -8.320 208.937 112.871  0.00  0.00     0.094 A 
ATOM      5  C3   11 d          -9.295 207.999 112.498  0.00  0.00     0.045 A 
ATOM      6  C4   11 d         -10.339 207.658 113.379  0.00  0.00    -0.059 A 
ATOM      7  C5   11 d         -10.348 208.209 114.673  0.00  0.00     0.009 A 
ATOM      8  C7   11 d         -11.321 206.582 113.006  0.00  0.00     0.048 C 
ATOM      9  C6   11 d          -9.374 209.143 115.054  0.00  0.00     0.035 A 
BRANCH   4  10
ATOM     10  O1   11 d          -7.302 209.262 111.939  0.00  0.00    -0.358 OA
ATOM     11  H7   11 d          -7.757 209.876 111.239  0.00  0.00     0.217 HD
ENDBRANCH   4  10
ENDBRANCH   1   3
BRANCH   2  12
ATOM     12  C9   11 d          -5.900 208.787 115.684  0.00  0.00     0.015 A 
ATOM     13  C10  11 d          -6.379 208.322 116.933  0.00  0.00     0.077 A 
ATOM     14  C11  11 d          -5.979 207.061 117.409  0.00  0.00     0.037 A 
ATOM     15  C12  11 d          -5.131 206.249 116.645  0.00  0.00     0.003 A 
ATOM     16  C13  11 d          -4.653 206.705 115.409  0.00  0.00     0.001 A 
ATOM     17  C14  11 d          -5.027 207.972 114.936  0.00  0.00     0.015 A 
BRANCH  13  18
ATOM     18  O2   11 d          -7.154 209.149 117.782  0.00  0.00    -0.360 OA
ATOM     19  H13  11 d          -7.812 208.513 118.264  0.00  0.00     0.217 HD
ENDBRANCH  13  18
ENDBRANCH   2  12
TORSDOF 4
ENDMDL
MODEL 9
REMARK VINA RESULT:      -6.2      4.265      8.051
REMARK  4 active torsions:
REMARK  status: ('A' for Active; 'I' for Inactive)
REMARK    1  A    between atoms: C1_1  and  N1_9 
REMARK    2  A    between atoms: C2_2  and  O1_8 
REMARK    3  A    between atoms: C8_10  and  C9_11 
REMARK    4  A    between atoms: C10_12  and  O2_17 
ROOT
ATOM      1  N1   11 d          -7.089 210.624 114.786  0.00  0.00    -0.257 NA
ATOM      2  C8   11 d          -5.817 210.325 114.958  0.00  0.00     0.131 C 
ENDROOT
BRANCH   1   3
ATOM      3  C1   11 d          -8.021 209.717 114.149  0.00  0.00     0.089 A 
ATOM      4  C2   11 d          -8.899 208.956 114.952  0.00  0.00     0.094 A 
ATOM      5  C3   11 d          -9.821 208.083 114.354  0.00  0.00     0.045 A 
ATOM      6  C4   11 d          -9.870 207.936 112.955  0.00  0.00    -0.059 A 
ATOM      7  C5   11 d          -9.037 208.739 112.155  0.00  0.00     0.009 A 
ATOM      8  C7   11 d         -10.925 207.071 112.322  0.00  0.00     0.048 C 
ATOM      9  C6   11 d          -8.118 209.618 112.745  0.00  0.00     0.035 A 
BRANCH   4  10
ATOM     10  O1   11 d          -8.876 209.051 116.367  0.00  0.00    -0.358 OA
ATOM     11  H7   11 d          -9.671 209.671 116.612  0.00  0.00     0.217 HD
ENDBRANCH   4  10
ENDBRANCH   1   3
BRANCH   2  12
ATOM     12  C9   11 d          -5.157 209.015 114.697  0.00  0.00     0.015 A 
ATOM     13  C10  11 d          -5.303 207.890 115.546  0.00  0.00     0.077 A 
ATOM     14  C11  11 d          -4.604 206.705 115.261  0.00  0.00     0.037 A 
ATOM     15  C12  11 d          -3.785 206.617 114.127  0.00  0.00     0.003 A 
ATOM     16  C13  11 d          -3.636 207.727 113.284  0.00  0.00     0.001 A 
ATOM     17  C14  11 d          -4.310 208.923 113.574  0.00  0.00     0.015 A 
BRANCH  13  18
ATOM     18  O2   11 d          -6.037 207.967 116.753  0.00  0.00    -0.360 OA
ATOM     19  H13  11 d          -6.068 207.001 117.121  0.00  0.00     0.217 HD
ENDBRANCH  13  18
ENDBRANCH   2  12
TORSDOF 4
ENDMDL
MODEL 10
REMARK VINA RESULT:      -5.9      6.191      8.200
REMARK  4 active torsions:
REMARK  status: ('A' for Active; 'I' for Inactive)
REMARK    1  A    between atoms: C1_1  and  N1_9 
REMARK    2  A    between atoms: C2_2  and  O1_8 
REMARK    3  A    between atoms: C8_10  and  C9_11 
REMARK    4  A    between atoms: C10_12  and  O2_17 
ROOT
ATOM      1  N1   11 d          -5.489 210.226 116.265  0.00  0.00    -0.257 NA
ATOM      2  C8   11 d          -6.269 210.652 115.292  0.00  0.00     0.131 C 
ENDROOT
BRANCH   1   3
ATOM      3  C1   11 d          -5.343 208.821 116.585  0.00  0.00     0.089 A 
ATOM      4  C2   11 d          -4.209 208.122 116.113  0.00  0.00     0.094 A 
ATOM      5  C3   11 d          -4.040 206.765 116.425  0.00  0.00     0.045 A 
ATOM      6  C4   11 d          -5.001 206.077 117.190  0.00  0.00    -0.059 A 
ATOM      7  C5   11 d          -6.097 206.788 117.710  0.00  0.00     0.009 A 
ATOM      8  C7   11 d          -4.762 204.649 117.598  0.00  0.00     0.048 C 
ATOM      9  C6   11 d          -6.270 208.147 117.407  0.00  0.00     0.035 A 
BRANCH   4  10
ATOM     10  O1   11 d          -3.223 208.763 115.322  0.00  0.00    -0.358 OA
ATOM     11  H7   11 d          -3.319 208.348 114.376  0.00  0.00     0.217 HD
ENDBRANCH   4  10
ENDBRANCH   1   3
BRANCH   2  12
ATOM     12  C9   11 d          -6.986 209.821 114.284  0.00  0.00     0.015 A 
ATOM     13  C10  11 d          -6.342 209.219 113.176  0.00  0.00     0.077 A 
ATOM     14  C11  11 d          -7.096 208.494 112.238  0.00  0.00     0.037 A 
ATOM     15  C12  11 d          -8.479 208.338 112.405  0.00  0.00     0.003 A 
ATOM     16  C13  11 d          -9.122 208.932 113.500  0.00  0.00     0.001 A 
ATOM     17  C14  11 d          -8.381 209.679 114.428  0.00  0.00     0.015 A 
BRANCH  13  18
ATOM     18  O2   11 d          -4.968 209.437 112.913  0.00  0.00    -0.360 OA
ATOM     19  H13  11 d          -4.466 208.695 113.432  0.00  0.00     0.217 HD
ENDBRANCH  13  18
ENDBRANCH   2  12
TORSDOF 4
ENDMDL
MODEL 11
REMARK VINA RESULT:      -5.9      2.355      4.379
REMARK  4 active torsions:
REMARK  status: ('A' for Active; 'I' for Inactive)
REMARK    1  A    between atoms: C1_1  and  N1_9 
REMARK    2  A    between atoms: C2_2  and  O1_8 
REMARK    3  A    between atoms: C8_10  and  C9_11 
REMARK    4  A    between atoms: C10_12  and  O2_17 
ROOT
ATOM      1  N1   11 d         -12.723 207.958 116.046  0.00  0.00    -0.257 NA
ATOM      2  C8   11 d         -12.527 208.416 114.826  0.00  0.00     0.131 C 
ENDROOT
BRANCH   1   3
ATOM      3  C1   11 d         -13.342 206.675 116.303  0.00  0.00     0.089 A 
ATOM      4  C2   11 d         -12.725 205.783 117.210  0.00  0.00     0.094 A 
ATOM      5  C3   11 d         -13.317 204.541 117.486  0.00  0.00     0.045 A 
ATOM      6  C4   11 d         -14.514 204.156 116.853  0.00  0.00    -0.059 A 
ATOM      7  C5   11 d         -15.158 205.069 115.998  0.00  0.00     0.009 A 
ATOM      8  C7   11 d         -15.187 202.865 117.229  0.00  0.00     0.048 C 
ATOM      9  C6   11 d         -14.576 206.315 115.721  0.00  0.00     0.035 A 
BRANCH   4  10
ATOM     10  O1   11 d         -11.509 206.113 117.858  0.00  0.00    -0.358 OA
ATOM     11  H7   11 d         -11.219 205.249 118.352  0.00  0.00     0.217 HD
ENDBRANCH   4  10
ENDBRANCH   1   3
BRANCH   2  12
ATOM     12  C9   11 d         -12.740 207.685 113.544  0.00  0.00     0.015 A 
ATOM     13  C10  11 d         -11.731 206.915 112.916  0.00  0.00     0.077 A 
ATOM     14  C11  11 d         -11.991 206.298 111.680  0.00  0.00     0.037 A 
ATOM     15  C12  11 d         -13.251 206.417 111.078  0.00  0.00     0.003 A 
ATOM     16  C13  11 d         -14.253 207.179 111.695  0.00  0.00     0.001 A 
ATOM     17  C14  11 d         -13.994 207.818 112.917  0.00  0.00     0.015 A 
BRANCH  13  18
ATOM     18  O2   11 d         -10.416 206.853 113.437  0.00  0.00    -0.360 OA
ATOM     19  H13  11 d          -9.851 207.479 112.838  0.00  0.00     0.217 HD
ENDBRANCH  13  18
ENDBRANCH   2  12
TORSDOF 4
ENDMDL
MODEL 12
REMARK VINA RESULT:      -5.7      5.521      8.705
REMARK  4 active torsions:
REMARK  status: ('A' for Active; 'I' for Inactive)
REMARK    1  A    between atoms: C1_1  and  N1_9 
REMARK    2  A    between atoms: C2_2  and  O1_8 
REMARK    3  A    between atoms: C8_10  and  C9_11 
REMARK    4  A    between atoms: C10_12  and  O2_17 
ROOT
ATOM      1  N1   11 d          -4.939 209.967 114.337  0.00  0.00    -0.257 NA
ATOM      2  C8   11 d          -4.451 209.503 115.469  0.00  0.00     0.131 C 
ENDROOT
BRANCH   1   3
ATOM      3  C1   11 d          -6.243 209.584 113.838  0.00  0.00     0.089 A 
ATOM      4  C2   11 d          -6.327 208.769 112.687  0.00  0.00     0.094 A 
ATOM      5  C3   11 d          -7.581 208.374 112.196  0.00  0.00     0.045 A 
ATOM      6  C4   11 d          -8.767 208.796 112.825  0.00  0.00    -0.059 A 
ATOM      7  C5   11 d          -8.680 209.557 114.005  0.00  0.00     0.009 A 
ATOM      8  C7   11 d         -10.100 208.288 112.347  0.00  0.00     0.048 C 
ATOM      9  C6   11 d          -7.431 209.952 114.505  0.00  0.00     0.035 A 
BRANCH   4  10
ATOM     10  O1   11 d          -5.164 208.333 112.004  0.00  0.00    -0.358 OA
ATOM     11  H7   11 d          -5.029 209.012 111.232  0.00  0.00     0.217 HD
ENDBRANCH   4  10
ENDBRANCH   1   3
BRANCH   2  12
ATOM     12  C9   11 d          -5.161 208.671 116.482  0.00  0.00     0.015 A 
ATOM     13  C10  11 d          -5.902 209.223 117.555  0.00  0.00     0.077 A 
ATOM     14  C11  11 d          -6.500 208.372 118.501  0.00  0.00     0.037 A 
ATOM     15  C12  11 d          -6.391 206.981 118.375  0.00  0.00     0.003 A 
ATOM     16  C13  11 d          -5.658 206.430 117.315  0.00  0.00     0.001 A 
ATOM     17  C14  11 d          -5.037 207.271 116.380  0.00  0.00     0.015 A 
BRANCH  13  18
ATOM     18  O2   11 d          -5.952 210.620 117.777  0.00  0.00    -0.360 OA
ATOM     19  H13  11 d          -5.084 210.850 118.291  0.00  0.00     0.217 HD
ENDBRANCH  13  18
ENDBRANCH   2  12
TORSDOF 4
ENDMDL
MODEL 13
REMARK VINA RESULT:      -5.7      5.889      7.983
REMARK  4 active torsions:
REMARK  status: ('A' for Active; 'I' for Inactive)
REMARK    1  A    between atoms: C1_1  and  N1_9 
REMARK    2  A    between atoms: C2_2  and  O1_8 
REMARK    3  A    between atoms: C8_10  and  C9_11 
REMARK    4  A    between atoms: C10_12  and  O2_17 
ROOT
ATOM      1  N1   11 d          -5.382 210.224 116.358  0.00  0.00    -0.257 NA
ATOM      2  C8   11 d          -6.155 210.645 115.377  0.00  0.00     0.131 C 
ENDROOT
BRANCH   1   3
ATOM      3  C1   11 d          -5.258 208.822 116.701  0.00  0.00     0.089 A 
ATOM      4  C2   11 d          -6.203 208.243 117.577  0.00  0.00     0.094 A 
ATOM      5  C3   11 d          -6.110 206.883 117.911  0.00  0.00     0.045 A 
ATOM      6  C4   11 d          -5.070 206.085 117.399  0.00  0.00    -0.059 A 
ATOM      7  C5   11 d          -4.167 206.648 116.479  0.00  0.00     0.009 A 
ATOM      8  C7   11 d          -5.037 204.609 117.686  0.00  0.00     0.048 C 
ATOM      9  C6   11 d          -4.256 208.005 116.137  0.00  0.00     0.035 A 
BRANCH   4  10
ATOM     10  O1   11 d          -7.257 209.007 118.137  0.00  0.00    -0.358 OA
ATOM     11  H7   11 d          -6.863 209.956 118.278  0.00  0.00     0.217 HD
ENDBRANCH   4  10
ENDBRANCH   1   3
BRANCH   2  12
ATOM     12  C9   11 d          -6.885 209.809 114.383  0.00  0.00     0.015 A 
ATOM     13  C10  11 d          -6.271 209.266 113.228  0.00  0.00     0.077 A 
ATOM     14  C11  11 d          -7.040 208.532 112.309  0.00  0.00     0.037 A 
ATOM     15  C12  11 d          -8.404 208.310 112.540  0.00  0.00     0.003 A 
ATOM     16  C13  11 d          -9.017 208.847 113.680  0.00  0.00     0.001 A 
ATOM     17  C14  11 d          -8.264 209.602 114.591  0.00  0.00     0.015 A 
BRANCH  13  18
ATOM     18  O2   11 d          -4.923 209.551 112.905  0.00  0.00    -0.360 OA
ATOM     19  H13  11 d          -4.404 208.674 113.085  0.00  0.00     0.217 HD
ENDBRANCH  13  18
ENDBRANCH   2  12
TORSDOF 4
ENDMDL
MODEL 14
REMARK VINA RESULT:      -5.6      9.338     10.514
REMARK  4 active torsions:
REMARK  status: ('A' for Active; 'I' for Inactive)
REMARK    1  A    between atoms: C1_1  and  N1_9 
REMARK    2  A    between atoms: C2_2  and  O1_8 
REMARK    3  A    between atoms: C8_10  and  C9_11 
REMARK    4  A    between atoms: C10_12  and  O2_17 
ROOT
ATOM      1  N1   11 d         -17.779 206.522 123.902  0.00  0.00    -0.257 NA
ATOM      2  C8   11 d         -18.989 206.299 123.429  0.00  0.00     0.131 C 
ENDROOT
BRANCH   1   3
ATOM      3  C1   11 d         -16.683 205.598 123.696  0.00  0.00     0.089 A 
ATOM      4  C2   11 d         -15.847 205.762 122.569  0.00  0.00     0.094 A 
ATOM      5  C3   11 d         -14.770 204.888 122.359  0.00  0.00     0.045 A 
ATOM      6  C4   11 d         -14.518 203.828 123.251  0.00  0.00    -0.059 A 
ATOM      7  C5   11 d         -15.314 203.704 124.405  0.00  0.00     0.009 A 
ATOM      8  C7   11 d         -13.305 202.958 123.069  0.00  0.00     0.048 C 
ATOM      9  C6   11 d         -16.389 204.577 124.624  0.00  0.00     0.035 A 
BRANCH   4  10
ATOM     10  O1   11 d         -16.069 206.800 121.629  0.00  0.00    -0.358 OA
ATOM     11  H7   11 d         -16.626 207.513 122.136  0.00  0.00     0.217 HD
ENDBRANCH   4  10
ENDBRANCH   1   3
BRANCH   2  12
ATOM     12  C9   11 d         -19.409 205.204 122.509  0.00  0.00     0.015 A 
ATOM     13  C10  11 d         -19.322 205.301 121.099  0.00  0.00     0.077 A 
ATOM     14  C11  11 d         -19.789 204.246 120.296  0.00  0.00     0.037 A 
ATOM     15  C12  11 d         -20.315 203.087 120.882  0.00  0.00     0.003 A 
ATOM     16  C13  11 d         -20.404 202.986 122.277  0.00  0.00     0.001 A 
ATOM     17  C14  11 d         -19.964 204.044 123.086  0.00  0.00     0.015 A 
BRANCH  13  18
ATOM     18  O2   11 d         -18.893 206.492 120.466  0.00  0.00    -0.360 OA
ATOM     19  H13  11 d         -17.860 206.476 120.515  0.00  0.00     0.217 HD
ENDBRANCH  13  18
ENDBRANCH   2  12
TORSDOF 4
ENDMDL
MODEL 15
REMARK VINA RESULT:      -5.5      5.349      8.916
REMARK  4 active torsions:
REMARK  status: ('A' for Active; 'I' for Inactive)
REMARK    1  A    between atoms: C1_1  and  N1_9 
REMARK    2  A    between atoms: C2_2  and  O1_8 
REMARK    3  A    between atoms: C8_10  and  C9_11 
REMARK    4  A    between atoms: C10_12  and  O2_17 
ROOT
ATOM      1  N1   11 d          -5.191 210.099 113.966  0.00  0.00    -0.257 NA
ATOM      2  C8   11 d          -4.368 209.572 114.849  0.00  0.00     0.131 C 
ENDROOT
BRANCH   1   3
ATOM      3  C1   11 d          -6.530 209.590 113.751  0.00  0.00     0.089 A 
ATOM      4  C2   11 d          -6.773 208.741 112.648  0.00  0.00     0.094 A 
ATOM      5  C3   11 d          -8.060 208.224 112.429  0.00  0.00     0.045 A 
ATOM      6  C4   11 d          -9.125 208.556 113.288  0.00  0.00    -0.059 A 
ATOM      7  C5   11 d          -8.867 209.351 114.419  0.00  0.00     0.009 A 
ATOM      8  C7   11 d         -10.474 207.920 113.100  0.00  0.00     0.048 C 
ATOM      9  C6   11 d          -7.583 209.868 114.647  0.00  0.00     0.035 A 
BRANCH   4  10
ATOM     10  O1   11 d          -5.741 208.392 111.742  0.00  0.00    -0.358 OA
ATOM     11  H7   11 d          -5.615 209.224 111.136  0.00  0.00     0.217 HD
ENDBRANCH   4  10
ENDBRANCH   1   3
BRANCH   2  12
ATOM     12  C9   11 d          -4.681 208.517 115.855  0.00  0.00     0.015 A 
ATOM     13  C10  11 d          -4.490 207.135 115.612  0.00  0.00     0.077 A 
ATOM     14  C11  11 d          -4.860 206.197 116.591  0.00  0.00     0.037 A 
ATOM     15  C12  11 d          -5.390 206.620 117.818  0.00  0.00     0.003 A 
ATOM     16  C13  11 d          -5.582 207.987 118.062  0.00  0.00     0.001 A 
ATOM     17  C14  11 d          -5.239 208.930 117.081  0.00  0.00     0.015 A 
BRANCH  13  18
ATOM     18  O2   11 d          -4.054 206.660 114.352  0.00  0.00    -0.360 OA
ATOM     19  H13  11 d          -4.852 206.807 113.710  0.00  0.00     0.217 HD
ENDBRANCH  13  18
ENDBRANCH   2  12
TORSDOF 4
ENDMDL
MODEL 16
REMARK VINA RESULT:      -5.1      7.381      9.096
REMARK  4 active torsions:
REMARK  status: ('A' for Active; 'I' for Inactive)
REMARK    1  A    between atoms: C1_1  and  N1_9 
REMARK    2  A    between atoms: C2_2  and  O1_8 
REMARK    3  A    between atoms: C8_10  and  C9_11 
REMARK    4  A    between atoms: C10_12  and  O2_17 
ROOT
ATOM      1  N1   11 d          -5.906 207.571 118.700  0.00  0.00    -0.257 NA
ATOM      2  C8   11 d          -5.876 207.321 117.406  0.00  0.00     0.131 C 
ENDROOT
BRANCH   1   3
ATOM      3  C1   11 d          -5.696 208.899 119.238  0.00  0.00     0.089 A 
ATOM      4  C2   11 d          -6.818 209.693 119.568  0.00  0.00     0.094 A 
ATOM      5  C3   11 d          -6.637 210.976 120.106  0.00  0.00     0.045 A 
ATOM      6  C4   11 d          -5.345 211.499 120.304  0.00  0.00    -0.059 A 
ATOM      7  C5   11 d          -4.230 210.685 120.033  0.00  0.00     0.009 A 
ATOM      8  C7   11 d          -5.163 212.835 120.970  0.00  0.00     0.048 C 
ATOM      9  C6   11 d          -4.403 209.399 119.501  0.00  0.00     0.035 A 
BRANCH   4  10
ATOM     10  O1   11 d          -8.140 209.223 119.368  0.00  0.00    -0.358 OA
ATOM     11  H7   11 d          -8.065 208.188 119.363  0.00  0.00     0.217 HD
ENDBRANCH   4  10
ENDBRANCH   1   3
BRANCH   2  12
ATOM     12  C9   11 d          -5.788 208.313 116.298  0.00  0.00     0.015 A 
ATOM     13  C10  11 d          -6.902 209.053 115.831  0.00  0.00     0.077 A 
ATOM     14  C11  11 d          -6.751 209.932 114.745  0.00  0.00     0.037 A 
ATOM     15  C12  11 d          -5.499 210.103 114.138  0.00  0.00     0.003 A 
ATOM     16  C13  11 d          -4.394 209.372 114.595  0.00  0.00     0.001 A 
ATOM     17  C14  11 d          -4.541 208.474 115.663  0.00  0.00     0.015 A 
BRANCH  13  18
ATOM     18  O2   11 d          -8.202 208.836 116.348  0.00  0.00    -0.360 OA
ATOM     19  H13  11 d          -8.218 209.313 117.266  0.00  0.00     0.217 HD
ENDBRANCH  13  18
ENDBRANCH   2  12
TORSDOF 4
ENDMDL
MODEL 17
REMARK VINA RESULT:      -5.1      8.530     10.958
REMARK  4 active torsions:
REMARK  status: ('A' for Active; 'I' for Inactive)
REMARK    1  A    between atoms: C1_1  and  N1_9 
REMARK    2  A    between atoms: C2_2  and  O1_8 
REMARK    3  A    between atoms: C8_10  and  C9_11 
REMARK    4  A    between atoms: C10_12  and  O2_17 
ROOT
ATOM      1  N1   11 d         -16.729 206.806 121.081  0.00  0.00    -0.257 NA
ATOM      2  C8   11 d         -15.428 206.706 121.266  0.00  0.00     0.131 C 
ENDROOT
BRANCH   1   3
ATOM      3  C1   11 d         -17.665 205.833 121.604  0.00  0.00     0.089 A 
ATOM      4  C2   11 d         -18.282 206.074 122.853  0.00  0.00     0.094 A 
ATOM      5  C3   11 d         -19.204 205.151 123.371  0.00  0.00     0.045 A 
ATOM      6  C4   11 d         -19.512 203.970 122.670  0.00  0.00    -0.059 A 
ATOM      7  C5   11 d         -18.943 203.761 121.401  0.00  0.00     0.009 A 
ATOM      8  C7   11 d         -20.571 203.037 123.189  0.00  0.00     0.048 C 
ATOM      9  C6   11 d         -18.025 204.681 120.874  0.00  0.00     0.035 A 
BRANCH   4  10
ATOM     10  O1   11 d         -17.992 207.238 123.608  0.00  0.00    -0.358 OA
ATOM     11  H7   11 d         -18.874 207.473 124.098  0.00  0.00     0.217 HD
ENDBRANCH   4  10
ENDBRANCH   1   3
BRANCH   2  12
ATOM     12  C9   11 d         -14.715 205.726 122.133  0.00  0.00     0.015 A 
ATOM     13  C10  11 d         -14.250 204.473 121.664  0.00  0.00     0.077 A 
ATOM     14  C11  11 d         -13.633 203.578 122.555  0.00  0.00     0.037 A 
ATOM     15  C12  11 d         -13.449 203.929 123.900  0.00  0.00     0.003 A 
ATOM     16  C13  11 d         -13.908 205.167 124.369  0.00  0.00     0.001 A 
ATOM     17  C14  11 d         -14.548 206.056 123.492  0.00  0.00     0.015 A 
BRANCH  13  18
ATOM     18  O2   11 d         -14.505 204.038 120.341  0.00  0.00    -0.360 OA
ATOM     19  H13  11 d         -15.261 203.336 120.421  0.00  0.00     0.217 HD
ENDBRANCH  13  18
ENDBRANCH   2  12
TORSDOF 4
ENDMDL
MODEL 18
REMARK VINA RESULT:      -5.1      9.023     11.512
REMARK  4 active torsions:
REMARK  status: ('A' for Active; 'I' for Inactive)
REMARK    1  A    between atoms: C1_1  and  N1_9 
REMARK    2  A    between atoms: C2_2  and  O1_8 
REMARK    3  A    between atoms: C8_10  and  C9_11 
REMARK    4  A    between atoms: C10_12  and  O2_17 
ROOT
ATOM      1  N1   11 d         -18.847 206.134 121.208  0.00  0.00    -0.257 NA
ATOM      2  C8   11 d         -17.540 206.301 121.181  0.00  0.00     0.131 C 
ENDROOT
BRANCH   1   3
ATOM      3  C1   11 d         -19.465 204.912 121.679  0.00  0.00     0.089 A 
ATOM      4  C2   11 d         -19.759 204.775 123.054  0.00  0.00     0.094 A 
ATOM      5  C3   11 d         -20.372 203.606 123.528  0.00  0.00     0.045 A 
ATOM      6  C4   11 d         -20.682 202.548 122.652  0.00  0.00    -0.059 A 
ATOM      7  C5   11 d         -20.443 202.711 121.275  0.00  0.00     0.009 A 
ATOM      8  C7   11 d         -21.424 201.341 123.156  0.00  0.00     0.048 C 
ATOM      9  C6   11 d         -19.836 203.879 120.793  0.00  0.00     0.035 A 
BRANCH   4  10
ATOM     10  O1   11 d         -19.449 205.802 123.981  0.00  0.00    -0.358 OA
ATOM     11  H7   11 d         -19.814 206.674 123.556  0.00  0.00     0.217 HD
ENDBRANCH   4  10
ENDBRANCH   1   3
BRANCH   2  12
ATOM     12  C9   11 d         -16.504 205.389 121.744  0.00  0.00     0.015 A 
ATOM     13  C10  11 d         -16.070 205.449 123.091  0.00  0.00     0.077 A 
ATOM     14  C11  11 d         -15.049 204.590 123.534  0.00  0.00     0.037 A 
ATOM     15  C12  11 d         -14.477 203.656 122.660  0.00  0.00     0.003 A 
ATOM     16  C13  11 d         -14.902 203.594 121.326  0.00  0.00     0.001 A 
ATOM     17  C14  11 d         -15.903 204.464 120.868  0.00  0.00     0.015 A 
BRANCH  13  18
ATOM     18  O2   11 d         -16.548 206.443 123.978  0.00  0.00    -0.360 OA
ATOM     19  H13  11 d         -16.002 206.323 124.849  0.00  0.00     0.217 HD
ENDBRANCH  13  18
ENDBRANCH   2  12
TORSDOF 4
ENDMDL
MODEL 19
REMARK VINA RESULT:      -5.0      8.998     11.492
REMARK  4 active torsions:
REMARK  status: ('A' for Active; 'I' for Inactive)
REMARK    1  A    between atoms: C1_1  and  N1_9 
REMARK    2  A    between atoms: C2_2  and  O1_8 
REMARK    3  A    between atoms: C8_10  and  C9_11 
REMARK    4  A    between atoms: C10_12  and  O2_17 
ROOT
ATOM      1  N1   11 d         -17.298 206.170 121.158  0.00  0.00    -0.257 NA
ATOM      2  C8   11 d         -16.056 206.101 121.593  0.00  0.00     0.131 C 
ENDROOT
BRANCH   1   3
ATOM      3  C1   11 d         -18.308 205.204 121.537  0.00  0.00     0.089 A 
ATOM      4  C2   11 d         -18.545 204.092 120.699  0.00  0.00     0.094 A 
ATOM      5  C3   11 d         -19.509 203.136 121.055  0.00  0.00     0.045 A 
ATOM      6  C4   11 d         -20.264 203.280 122.234  0.00  0.00    -0.059 A 
ATOM      7  C5   11 d         -19.985 204.355 123.097  0.00  0.00     0.009 A 
ATOM      8  C7   11 d         -21.225 202.201 122.654  0.00  0.00     0.048 C 
ATOM      9  C6   11 d         -19.019 205.311 122.751  0.00  0.00     0.035 A 
BRANCH   4  10
ATOM     10  O1   11 d         -17.827 203.911 119.490  0.00  0.00    -0.358 OA
ATOM     11  H7   11 d         -17.733 202.884 119.379  0.00  0.00     0.217 HD
ENDBRANCH   4  10
ENDBRANCH   1   3
BRANCH   2  12
ATOM     12  C9   11 d         -15.513 205.172 122.624  0.00  0.00     0.015 A 
ATOM     13  C10  11 d         -15.574 205.438 124.014  0.00  0.00     0.077 A 
ATOM     14  C11  11 d         -14.991 204.538 124.923  0.00  0.00     0.037 A 
ATOM     15  C12  11 d         -14.374 203.365 124.466  0.00  0.00     0.003 A 
ATOM     16  C13  11 d         -14.311 203.099 123.091  0.00  0.00     0.001 A 
ATOM     17  C14  11 d         -14.867 204.003 122.175  0.00  0.00     0.015 A 
BRANCH  13  18
ATOM     18  O2   11 d         -16.096 206.656 124.512  0.00  0.00    -0.360 OA
ATOM     19  H13  11 d         -15.356 207.361 124.349  0.00  0.00     0.217 HD
ENDBRANCH  13  18
ENDBRANCH   2  12
TORSDOF 4
ENDMDL
MODEL 20
REMARK VINA RESULT:      -5.0     13.047     14.889
REMARK  4 active torsions:
REMARK  status: ('A' for Active; 'I' for Inactive)
REMARK    1  A    between atoms: C1_1  and  N1_9 
REMARK    2  A    between atoms: C2_2  and  O1_8 
REMARK    3  A    between atoms: C8_10  and  C9_11 
REMARK    4  A    between atoms: C10_12  and  O2_17 
ROOT
ATOM      1  N1   11 d         -21.214 200.358 124.832  0.00  0.00    -0.257 NA
ATOM      2  C8   11 d         -22.457 199.985 125.059  0.00  0.00     0.131 C 
ENDROOT
BRANCH   1   3
ATOM      3  C1   11 d         -20.879 201.431 123.920  0.00  0.00     0.089 A 
ATOM      4  C2   11 d         -20.840 201.168 122.533  0.00  0.00     0.094 A 
ATOM      5  C3   11 d         -20.532 202.197 121.630  0.00  0.00     0.045 A 
ATOM      6  C4   11 d         -20.240 203.495 122.090  0.00  0.00    -0.059 A 
ATOM      7  C5   11 d         -20.339 203.770 123.466  0.00  0.00     0.009 A 
ATOM      8  C7   11 d         -20.007 204.611 121.109  0.00  0.00     0.048 C 
ATOM      9  C6   11 d         -20.651 202.747 124.374  0.00  0.00     0.035 A 
BRANCH   4  10
ATOM     10  O1   11 d         -21.106 199.874 122.018  0.00  0.00    -0.358 OA
ATOM     11  H7   11 d         -21.931 199.989 121.401  0.00  0.00     0.217 HD
ENDBRANCH   4  10
ENDBRANCH   1   3
BRANCH   2  12
ATOM     12  C9   11 d         -23.700 200.654 124.579  0.00  0.00     0.015 A 
ATOM     13  C10  11 d         -24.388 200.260 123.405  0.00  0.00     0.077 A 
ATOM     14  C11  11 d         -25.523 200.975 122.988  0.00  0.00     0.037 A 
ATOM     15  C12  11 d         -25.997 202.059 123.740  0.00  0.00     0.003 A 
ATOM     16  C13  11 d         -25.319 202.454 124.901  0.00  0.00     0.001 A 
ATOM     17  C14  11 d         -24.170 201.762 125.312  0.00  0.00     0.015 A 
BRANCH  13  18
ATOM     18  O2   11 d         -23.887 199.238 122.563  0.00  0.00    -0.360 OA
ATOM     19  H13  11 d         -24.613 198.500 122.562  0.00  0.00     0.217 HD
ENDBRANCH  13  18
ENDBRANCH   2  12
TORSDOF 4
ENDMDL
