MODEL 1
REMARK VINA RESULT:      -9.2      0.000      0.000
REMARK  2 active torsions:
REMARK  status: ('A' for Active; 'I' for Inactive)
REMARK    1  A    between atoms: C2_5  and  C1_2 
REMARK    2  A    between atoms: C7_10  and  N1_11 
REMARK       I    between atoms: N1_11  and  C8_12 
ROOT
ATOM      1  N1  <1> d           6.744  43.553  49.870  0.00  0.00    -0.284 N 
ATOM      2  C8  <1> d           7.025  44.706  50.705  0.00  0.00     0.220 A 
ATOM      3  N2  <1> d           8.191  45.303  50.527  0.00  0.00    -0.223 NA
ATOM      4  C9  <1> d           8.502  46.406  51.292  0.00  0.00     0.116 A 
ATOM      5  C10 <1> d           7.650  46.964  52.284  0.00  0.00     0.049 A 
ATOM      6  N3  <1> d           6.152  45.160  51.619  0.00  0.00    -0.214 NA
ATOM      7  C11 <1> d           6.388  46.272  52.443  0.00  0.00     0.084 A 
ATOM      8  C12 <1> d           5.337  46.608  53.373  0.00  0.00     0.060 A 
ATOM      9  S1  <1> d           3.891  45.534  53.320  0.00  0.00    -0.071 SA
ATOM     10  C13 <1> d           5.107  47.593  54.370  0.00  0.00     0.055 A 
ATOM     11  C14 <1> d           6.069  48.736  54.791  0.00  0.00     0.067 C 
ATOM     12  N4  <1> d           3.863  47.499  55.033  0.00  0.00    -0.249 NA
ATOM     13  C15 <1> d           3.167  46.443  54.537  0.00  0.00     0.076 A 
ATOM     14  C16 <1> d           1.801  45.967  54.942  0.00  0.00     0.074 C 
ATOM     15  H5  <1> d           7.530  43.393  49.273  0.00  0.00     0.155 HD
ENDROOT
BRANCH   1  16
ATOM     16  C7  <1> d           5.716  42.523  49.579  0.00  0.00     0.034 A 
ATOM     17  C4  <1> d           5.610  41.912  48.213  0.00  0.00     0.024 A 
ATOM     18  C3  <1> d           4.589  40.937  47.938  0.00  0.00     0.014 A 
ATOM     19  C2  <1> d           3.664  40.543  48.987  0.00  0.00     0.055 A 
ATOM     20  C5  <1> d           3.791  41.139  50.315  0.00  0.00     0.014 A 
ATOM     21  C6  <1> d           4.792  42.097  50.590  0.00  0.00     0.024 A 
BRANCH  19  22
ATOM     22  C1  <1> d           2.498  39.483  48.688  0.00  0.00     0.417 C 
ATOM     23  F1  <1> d           2.929  38.651  47.633  0.00  0.00    -0.166 F 
ATOM     24  F2  <1> d           2.249  38.686  49.830  0.00  0.00    -0.166 F 
ATOM     25  F3  <1> d           1.334  40.162  48.316  0.00  0.00    -0.166 F 
ENDBRANCH  19  22
ENDBRANCH   1  16
TORSDOF 2
ENDMDL
MODEL 2
REMARK VINA RESULT:      -9.1      4.992      7.540
REMARK  2 active torsions:
REMARK  status: ('A' for Active; 'I' for Inactive)
REMARK    1  A    between atoms: C2_5  and  C1_2 
REMARK    2  A    between atoms: C7_10  and  N1_11 
REMARK       I    between atoms: N1_11  and  C8_12 
ROOT
ATOM      1  N1  <1> d           6.631  43.925  50.174  0.00  0.00    -0.284 N 
ATOM      2  C8  <1> d           5.548  43.041  49.783  0.00  0.00     0.220 A 
ATOM      3  N2  <1> d           5.857  42.037  48.980  0.00  0.00    -0.223 NA
ATOM      4  C9  <1> d           4.864  41.167  48.585  0.00  0.00     0.116 A 
ATOM      5  C10 <1> d           3.501  41.268  48.977  0.00  0.00     0.049 A 
ATOM      6  N3  <1> d           4.287  43.220  50.209  0.00  0.00    -0.214 NA
ATOM      7  C11 <1> d           3.214  42.386  49.853  0.00  0.00     0.084 A 
ATOM      8  C12 <1> d           1.927  42.738  50.400  0.00  0.00     0.060 A 
ATOM      9  S1  <1> d           1.913  44.200  51.453  0.00  0.00    -0.071 SA
ATOM     10  C13 <1> d           0.600  42.236  50.341  0.00  0.00     0.055 A 
ATOM     11  C14 <1> d           0.107  40.994  49.550  0.00  0.00     0.067 C 
ATOM     12  N4  <1> d          -0.352  42.962  51.090  0.00  0.00    -0.249 NA
ATOM     13  C15 <1> d           0.260  44.008  51.703  0.00  0.00     0.076 A 
ATOM     14  C16 <1> d          -0.360  45.043  52.598  0.00  0.00     0.074 C 
ATOM     15  H5  <1> d           7.473  43.608  49.739  0.00  0.00     0.155 HD
ENDROOT
BRANCH   1  16
ATOM     16  C7  <1> d           6.944  45.128  50.986  0.00  0.00     0.034 A 
ATOM     17  C4  <1> d           8.295  45.774  50.904  0.00  0.00     0.024 A 
ATOM     18  C3  <1> d           8.594  46.921  51.719  0.00  0.00     0.014 A 
ATOM     19  C2  <1> d           7.583  47.454  52.617  0.00  0.00     0.055 A 
ATOM     20  C5  <1> d           6.269  46.819  52.672  0.00  0.00     0.014 A 
ATOM     21  C6  <1> d           5.971  45.691  51.875  0.00  0.00     0.024 A 
BRANCH  19  22
ATOM     22  C1  <1> d           7.910  48.711  53.558  0.00  0.00     0.417 C 
ATOM     23  F1  <1> d           8.039  49.848  52.731  0.00  0.00    -0.166 F 
ATOM     24  F2  <1> d           6.859  48.928  54.479  0.00  0.00    -0.166 F 
ATOM     25  F3  <1> d           9.107  48.481  54.243  0.00  0.00    -0.166 F 
ENDBRANCH  19  22
ENDBRANCH   1  16
TORSDOF 2
ENDMDL
MODEL 3
REMARK VINA RESULT:      -9.1      4.894      8.204
REMARK  2 active torsions:
REMARK  status: ('A' for Active; 'I' for Inactive)
REMARK    1  A    between atoms: C2_5  and  C1_2 
REMARK    2  A    between atoms: C7_10  and  N1_11 
REMARK       I    between atoms: N1_11  and  C8_12 
ROOT
ATOM      1  N1  <1> d           3.917  45.282  53.612  0.00  0.00    -0.284 N 
ATOM      2  C8  <1> d           2.800  44.497  53.118  0.00  0.00     0.220 A 
ATOM      3  N2  <1> d           1.705  44.485  53.858  0.00  0.00    -0.223 NA
ATOM      4  C9  <1> d           0.615  43.758  53.429  0.00  0.00     0.116 A 
ATOM      5  C10 <1> d           0.576  43.000  52.227  0.00  0.00     0.049 A 
ATOM      6  N3  <1> d           2.860  43.811  51.965  0.00  0.00    -0.214 NA
ATOM      7  C11 <1> d           1.801  43.043  51.455  0.00  0.00     0.084 A 
ATOM      8  C12 <1> d           2.051  42.368  50.205  0.00  0.00     0.060 A 
ATOM      9  S1  <1> d           3.692  42.625  49.506  0.00  0.00    -0.071 SA
ATOM     10  C13 <1> d           1.336  41.513  49.324  0.00  0.00     0.055 A 
ATOM     11  C14 <1> d          -0.118  40.997  49.501  0.00  0.00     0.067 C 
ATOM     12  N4  <1> d           2.045  41.105  48.173  0.00  0.00    -0.249 NA
ATOM     13  C15 <1> d           3.291  41.648  48.196  0.00  0.00     0.076 A 
ATOM     14  C16 <1> d           4.385  41.486  47.180  0.00  0.00     0.074 C 
ATOM     15  H5  <1> d           3.653  45.698  54.482  0.00  0.00     0.155 HD
ENDROOT
BRANCH   1  16
ATOM     16  C7  <1> d           5.308  45.692  53.297  0.00  0.00     0.034 A 
ATOM     17  C4  <1> d           6.203  46.243  54.366  0.00  0.00     0.024 A 
ATOM     18  C3  <1> d           7.539  46.665  54.039  0.00  0.00     0.014 A 
ATOM     19  C2  <1> d           8.019  46.552  52.672  0.00  0.00     0.055 A 
ATOM     20  C5  <1> d           7.137  46.000  51.647  0.00  0.00     0.014 A 
ATOM     21  C6  <1> d           5.824  45.586  51.963  0.00  0.00     0.024 A 
BRANCH  19  22
ATOM     22  C1  <1> d           9.494  47.049  52.283  0.00  0.00     0.417 C 
ATOM     23  F1  <1> d           9.364  48.121  51.376  0.00  0.00    -0.166 F 
ATOM     24  F2  <1> d          10.184  47.500  53.433  0.00  0.00    -0.166 F 
ATOM     25  F3  <1> d          10.197  45.999  51.685  0.00  0.00    -0.166 F 
ENDBRANCH  19  22
ENDBRANCH   1  16
TORSDOF 2
ENDMDL
MODEL 4
REMARK VINA RESULT:      -8.9      4.807      7.171
REMARK  2 active torsions:
REMARK  status: ('A' for Active; 'I' for Inactive)
REMARK    1  A    between atoms: C2_5  and  C1_2 
REMARK    2  A    between atoms: C7_10  and  N1_11 
REMARK       I    between atoms: N1_11  and  C8_12 
ROOT
ATOM      1  N1  <1> d           6.024  42.568  49.265  0.00  0.00    -0.284 N 
ATOM      2  C8  <1> d           4.696  41.989  49.182  0.00  0.00     0.220 A 
ATOM      3  N2  <1> d           4.556  40.924  48.413  0.00  0.00    -0.223 NA
ATOM      4  C9  <1> d           3.315  40.334  48.305  0.00  0.00     0.116 A 
ATOM      5  C10 <1> d           2.145  40.794  48.969  0.00  0.00     0.049 A 
ATOM      6  N3  <1> d           3.649  42.498  49.851  0.00  0.00    -0.214 NA
ATOM      7  C11 <1> d           2.351  41.965  49.796  0.00  0.00     0.084 A 
ATOM      8  C12 <1> d           1.349  42.651  50.575  0.00  0.00     0.060 A 
ATOM      9  S1  <1> d           1.938  44.087  51.491  0.00  0.00    -0.071 SA
ATOM     10  C13 <1> d          -0.040  42.511  50.838  0.00  0.00     0.055 A 
ATOM     11  C14 <1> d          -0.991  41.425  50.268  0.00  0.00     0.067 C 
ATOM     12  N4  <1> d          -0.587  43.475  51.714  0.00  0.00    -0.249 NA
ATOM     13  C15 <1> d           0.389  44.337  52.100  0.00  0.00     0.076 A 
ATOM     14  C16 <1> d           0.264  45.515  53.024  0.00  0.00     0.074 C 
ATOM     15  H5  <1> d           6.641  42.034  48.686  0.00  0.00     0.155 HD
ENDROOT
BRANCH   1  16
ATOM     16  C7  <1> d           6.802  43.664  49.896  0.00  0.00     0.034 A 
ATOM     17  C4  <1> d           8.282  43.775  49.678  0.00  0.00     0.024 A 
ATOM     18  C3  <1> d           9.027  44.824  50.320  0.00  0.00     0.014 A 
ATOM     19  C2  <1> d           8.342  45.778  51.177  0.00  0.00     0.055 A 
ATOM     20  C5  <1> d           6.898  45.661  51.366  0.00  0.00     0.014 A 
ATOM     21  C6  <1> d           6.162  44.632  50.738  0.00  0.00     0.024 A 
BRANCH  19  22
ATOM     22  C1  <1> d           9.162  46.934  51.928  0.00  0.00     0.417 C 
ATOM     23  F1  <1> d           8.780  46.924  53.286  0.00  0.00    -0.166 F 
ATOM     24  F2  <1> d          10.553  46.691  51.839  0.00  0.00    -0.166 F 
ATOM     25  F3  <1> d           8.855  48.171  51.353  0.00  0.00    -0.166 F 
ENDBRANCH  19  22
ENDBRANCH   1  16
TORSDOF 2
ENDMDL
MODEL 5
REMARK VINA RESULT:      -8.9      2.188      4.104
REMARK  2 active torsions:
REMARK  status: ('A' for Active; 'I' for Inactive)
REMARK    1  A    between atoms: C2_5  and  C1_2 
REMARK    2  A    between atoms: C7_10  and  N1_11 
REMARK       I    between atoms: N1_11  and  C8_12 
ROOT
ATOM      1  N1  <1> d           3.163  44.680  52.139  0.00  0.00    -0.284 N 
ATOM      2  C8  <1> d           3.806  45.646  53.011  0.00  0.00     0.220 A 
ATOM      3  N2  <1> d           3.048  46.216  53.932  0.00  0.00    -0.223 NA
ATOM      4  C9  <1> d           3.614  47.136  54.789  0.00  0.00     0.116 A 
ATOM      5  C10 <1> d           4.979  47.532  54.757  0.00  0.00     0.049 A 
ATOM      6  N3  <1> d           5.109  45.954  52.903  0.00  0.00    -0.214 NA
ATOM      7  C11 <1> d           5.765  46.882  53.729  0.00  0.00     0.084 A 
ATOM      8  C12 <1> d           7.166  47.092  53.458  0.00  0.00     0.060 A 
ATOM      9  S1  <1> d           7.841  46.124  52.096  0.00  0.00    -0.071 SA
ATOM     10  C13 <1> d           8.219  47.886  53.986  0.00  0.00     0.055 A 
ATOM     11  C14 <1> d           8.127  48.892  55.165  0.00  0.00     0.067 C 
ATOM     12  N4  <1> d           9.471  47.723  53.354  0.00  0.00    -0.249 NA
ATOM     13  C15 <1> d           9.354  46.814  52.351  0.00  0.00     0.076 A 
ATOM     14  C16 <1> d          10.426  46.331  51.416  0.00  0.00     0.074 C 
ATOM     15  H5  <1> d           2.199  44.613  52.394  0.00  0.00     0.155 HD
ENDROOT
BRANCH   1  16
ATOM     16  C7  <1> d           3.415  43.756  51.005  0.00  0.00     0.034 A 
ATOM     17  C4  <1> d           4.814  43.352  50.644  0.00  0.00     0.024 A 
ATOM     18  C3  <1> d           5.043  42.479  49.524  0.00  0.00     0.014 A 
ATOM     19  C2  <1> d           3.918  41.988  48.747  0.00  0.00     0.055 A 
ATOM     20  C5  <1> d           2.562  42.381  49.122  0.00  0.00     0.014 A 
ATOM     21  C6  <1> d           2.331  43.239  50.221  0.00  0.00     0.024 A 
BRANCH  19  22
ATOM     22  C1  <1> d           4.159  41.041  47.474  0.00  0.00     0.417 C 
ATOM     23  F1  <1> d           5.538  41.058  47.177  0.00  0.00    -0.166 F 
ATOM     24  F2  <1> d           3.766  39.713  47.764  0.00  0.00    -0.166 F 
ATOM     25  F3  <1> d           3.429  41.529  46.385  0.00  0.00    -0.166 F 
ENDBRANCH  19  22
ENDBRANCH   1  16
TORSDOF 2
ENDMDL
MODEL 6
REMARK VINA RESULT:      -8.4      4.924      7.081
REMARK  2 active torsions:
REMARK  status: ('A' for Active; 'I' for Inactive)
REMARK    1  A    between atoms: C2_5  and  C1_2 
REMARK    2  A    between atoms: C7_10  and  N1_11 
REMARK       I    between atoms: N1_11  and  C8_12 
ROOT
ATOM      1  N1  <1> d           4.759  43.807  50.416  0.00  0.00    -0.284 N 
ATOM      2  C8  <1> d           3.406  43.324  50.623  0.00  0.00     0.220 A 
ATOM      3  N2  <1> d           2.916  42.507  49.707  0.00  0.00    -0.223 NA
ATOM      4  C9  <1> d           1.637  42.017  49.862  0.00  0.00     0.116 A 
ATOM      5  C10 <1> d           0.781  42.332  50.952  0.00  0.00     0.049 A 
ATOM      6  N3  <1> d           2.673  43.680  51.691  0.00  0.00    -0.214 NA
ATOM      7  C11 <1> d           1.363  43.233  51.926  0.00  0.00     0.084 A 
ATOM      8  C12 <1> d           0.728  43.729  53.123  0.00  0.00     0.060 A 
ATOM      9  S1  <1> d           1.730  44.846  54.119  0.00  0.00    -0.071 SA
ATOM     10  C13 <1> d          -0.527  43.580  53.772  0.00  0.00     0.055 A 
ATOM     11  C14 <1> d          -1.729  42.722  53.292  0.00  0.00     0.067 C 
ATOM     12  N4  <1> d          -0.669  44.298  54.979  0.00  0.00    -0.249 NA
ATOM     13  C15 <1> d           0.474  44.988  55.230  0.00  0.00     0.076 A 
ATOM     14  C16 <1> d           0.772  45.884  56.398  0.00  0.00     0.074 C 
ATOM     15  H5  <1> d           5.107  43.421  49.562  0.00  0.00     0.155 HD
ENDROOT
BRANCH   1  16
ATOM     16  C7  <1> d           5.815  44.664  51.010  0.00  0.00     0.034 A 
ATOM     17  C4  <1> d           7.144  44.819  50.332  0.00  0.00     0.024 A 
ATOM     18  C3  <1> d           8.168  45.630  50.934  0.00  0.00     0.014 A 
ATOM     19  C2  <1> d           7.911  46.299  52.198  0.00  0.00     0.055 A 
ATOM     20  C5  <1> d           6.606  46.147  52.836  0.00  0.00     0.014 A 
ATOM     21  C6  <1> d           5.597  45.351  52.249  0.00  0.00     0.024 A 
BRANCH  19  22
ATOM     22  C1  <1> d           9.053  47.179  52.901  0.00  0.00     0.417 C 
ATOM     23  F1  <1> d          10.235  47.040  52.142  0.00  0.00    -0.166 F 
ATOM     24  F2  <1> d           8.681  48.544  52.928  0.00  0.00    -0.166 F 
ATOM     25  F3  <1> d           9.264  46.715  54.203  0.00  0.00    -0.166 F 
ENDBRANCH  19  22
ENDBRANCH   1  16
TORSDOF 2
ENDMDL
MODEL 7
REMARK VINA RESULT:      -8.3      3.229      6.193
REMARK  2 active torsions:
REMARK  status: ('A' for Active; 'I' for Inactive)
REMARK    1  A    between atoms: C2_5  and  C1_2 
REMARK    2  A    between atoms: C7_10  and  N1_11 
REMARK       I    between atoms: N1_11  and  C8_12 
ROOT
ATOM      1  N1  <1> d           3.333  47.206  54.734  0.00  0.00    -0.284 N 
ATOM      2  C8  <1> d           4.702  47.486  54.343  0.00  0.00     0.220 A 
ATOM      3  N2  <1> d           5.305  48.490  54.955  0.00  0.00    -0.223 NA
ATOM      4  C9  <1> d           6.608  48.792  54.622  0.00  0.00     0.116 A 
ATOM      5  C10 <1> d           7.372  48.094  53.647  0.00  0.00     0.049 A 
ATOM      6  N3  <1> d           5.341  46.765  53.407  0.00  0.00    -0.214 NA
ATOM      7  C11 <1> d           6.665  47.005  53.003  0.00  0.00     0.084 A 
ATOM      8  C12 <1> d           7.184  46.135  51.977  0.00  0.00     0.060 A 
ATOM      9  S1  <1> d           6.036  44.880  51.381  0.00  0.00    -0.071 SA
ATOM     10  C13 <1> d           8.403  45.977  51.265  0.00  0.00     0.055 A 
ATOM     11  C14 <1> d           9.690  46.831  51.421  0.00  0.00     0.067 C 
ATOM     12  N4  <1> d           8.418  44.926  50.322  0.00  0.00    -0.249 NA
ATOM     13  C15 <1> d           7.212  44.302  50.324  0.00  0.00     0.076 A 
ATOM     14  C16 <1> d           6.777  43.134  49.486  0.00  0.00     0.074 C 
ATOM     15  H5  <1> d           3.062  47.865  55.436  0.00  0.00     0.155 HD
ENDROOT
BRANCH   1  16
ATOM     16  C7  <1> d           2.187  46.299  54.472  0.00  0.00     0.034 A 
ATOM     17  C4  <1> d           1.656  45.406  55.554  0.00  0.00     0.024 A 
ATOM     18  C3  <1> d           0.565  44.511  55.277  0.00  0.00     0.014 A 
ATOM     19  C2  <1> d          -0.023  44.477  53.948  0.00  0.00     0.055 A 
ATOM     20  C5  <1> d           0.499  45.364  52.912  0.00  0.00     0.014 A 
ATOM     21  C6  <1> d           1.571  46.244  53.179  0.00  0.00     0.024 A 
BRANCH  19  22
ATOM     22  C1  <1> d          -1.218  43.460  53.613  0.00  0.00     0.417 C 
ATOM     23  F1  <1> d          -1.618  43.687  52.279  0.00  0.00    -0.166 F 
ATOM     24  F2  <1> d          -0.780  42.121  53.741  0.00  0.00    -0.166 F 
ATOM     25  F3  <1> d          -2.289  43.698  54.480  0.00  0.00    -0.166 F 
ENDBRANCH  19  22
ENDBRANCH   1  16
TORSDOF 2
ENDMDL
MODEL 8
REMARK VINA RESULT:      -8.1      2.983      4.627
REMARK  2 active torsions:
REMARK  status: ('A' for Active; 'I' for Inactive)
REMARK    1  A    between atoms: C2_5  and  C1_2 
REMARK    2  A    between atoms: C7_10  and  N1_11 
REMARK       I    between atoms: N1_11  and  C8_12 
ROOT
ATOM      1  N1  <1> d           1.927  42.735  49.750  0.00  0.00    -0.284 N 
ATOM      2  C8  <1> d           2.115  43.488  50.977  0.00  0.00     0.220 A 
ATOM      3  N2  <1> d           1.089  43.540  51.809  0.00  0.00    -0.223 NA
ATOM      4  C9  <1> d           1.220  44.239  52.990  0.00  0.00     0.116 A 
ATOM      5  C10 <1> d           2.397  44.927  53.392  0.00  0.00     0.049 A 
ATOM      6  N3  <1> d           3.270  44.107  51.269  0.00  0.00    -0.214 NA
ATOM      7  C11 <1> d           3.489  44.843  52.445  0.00  0.00     0.084 A 
ATOM      8  C12 <1> d           4.792  45.446  52.583  0.00  0.00     0.060 A 
ATOM      9  S1  <1> d           5.925  45.152  51.213  0.00  0.00    -0.071 SA
ATOM     10  C13 <1> d           5.471  46.247  53.540  0.00  0.00     0.055 A 
ATOM     11  C14 <1> d           4.905  46.769  54.888  0.00  0.00     0.067 C 
ATOM     12  N4  <1> d           6.799  46.590  53.204  0.00  0.00    -0.249 NA
ATOM     13  C15 <1> d           7.112  46.052  51.997  0.00  0.00     0.076 A 
ATOM     14  C16 <1> d           8.410  46.157  51.249  0.00  0.00     0.074 C 
ATOM     15  H5  <1> d           0.996  42.369  49.741  0.00  0.00     0.155 HD
ENDROOT
BRANCH   1  16
ATOM     16  C7  <1> d           2.612  42.310  48.504  0.00  0.00     0.034 A 
ATOM     17  C4  <1> d           4.066  41.941  48.519  0.00  0.00     0.024 A 
ATOM     18  C3  <1> d           4.723  41.561  47.297  0.00  0.00     0.014 A 
ATOM     19  C2  <1> d           3.975  41.531  46.052  0.00  0.00     0.055 A 
ATOM     20  C5  <1> d           2.557  41.880  46.061  0.00  0.00     0.014 A 
ATOM     21  C6  <1> d           1.907  42.256  47.257  0.00  0.00     0.024 A 
BRANCH  19  22
ATOM     22  C1  <1> d           4.701  41.141  44.675  0.00  0.00     0.417 C 
ATOM     23  F1  <1> d           5.748  40.245  44.977  0.00  0.00    -0.166 F 
ATOM     24  F2  <1> d           3.791  40.507  43.798  0.00  0.00    -0.166 F 
ATOM     25  F3  <1> d           5.217  42.295  44.078  0.00  0.00    -0.166 F 
ENDBRANCH  19  22
ENDBRANCH   1  16
TORSDOF 2
ENDMDL
MODEL 9
REMARK VINA RESULT:      -8.1      2.541      3.928
REMARK  2 active torsions:
REMARK  status: ('A' for Active; 'I' for Inactive)
REMARK    1  A    between atoms: C2_5  and  C1_2 
REMARK    2  A    between atoms: C7_10  and  N1_11 
REMARK       I    between atoms: N1_11  and  C8_12 
ROOT
ATOM      1  N1  <1> d           5.292  44.314  51.986  0.00  0.00    -0.284 N 
ATOM      2  C8  <1> d           4.681  44.874  53.178  0.00  0.00     0.220 A 
ATOM      3  N2  <1> d           5.452  45.620  53.950  0.00  0.00    -0.223 NA
ATOM      4  C9  <1> d           4.916  46.179  55.090  0.00  0.00     0.116 A 
ATOM      5  C10 <1> d           3.570  46.010  55.514  0.00  0.00     0.049 A 
ATOM      6  N3  <1> d           3.394  44.657  53.493  0.00  0.00    -0.214 NA
ATOM      7  C11 <1> d           2.769  45.182  54.636  0.00  0.00     0.084 A 
ATOM      8  C12 <1> d           1.381  44.834  54.816  0.00  0.00     0.060 A 
ATOM      9  S1  <1> d           0.681  43.775  53.538  0.00  0.00    -0.071 SA
ATOM     10  C13 <1> d           0.356  45.101  55.764  0.00  0.00     0.055 A 
ATOM     11  C14 <1> d           0.478  45.961  57.051  0.00  0.00     0.067 C 
ATOM     12  N4  <1> d          -0.894  44.510  55.481  0.00  0.00    -0.249 NA
ATOM     13  C15 <1> d          -0.805  43.797  54.328  0.00  0.00     0.076 A 
ATOM     14  C16 <1> d          -1.886  43.007  53.647  0.00  0.00     0.074 C 
ATOM     15  H5  <1> d           6.250  44.600  51.956  0.00  0.00     0.155 HD
ENDROOT
BRANCH   1  16
ATOM     16  C7  <1> d           5.014  43.472  50.796  0.00  0.00     0.034 A 
ATOM     17  C4  <1> d           6.128  42.761  50.085  0.00  0.00     0.024 A 
ATOM     18  C3  <1> d           5.846  41.973  48.915  0.00  0.00     0.014 A 
ATOM     19  C2  <1> d           4.482  41.864  48.427  0.00  0.00     0.055 A 
ATOM     20  C5  <1> d           3.409  42.552  49.141  0.00  0.00     0.014 A 
ATOM     21  C6  <1> d           3.680  43.329  50.289  0.00  0.00     0.024 A 
BRANCH  19  22
ATOM     22  C1  <1> d           4.156  41.017  47.105  0.00  0.00     0.417 C 
ATOM     23  F1  <1> d           5.335  40.946  46.334  0.00  0.00    -0.166 F 
ATOM     24  F2  <1> d           3.748  39.705  47.445  0.00  0.00    -0.166 F 
ATOM     25  F3  <1> d           3.148  41.658  46.377  0.00  0.00    -0.166 F 
ENDBRANCH  19  22
ENDBRANCH   1  16
TORSDOF 2
ENDMDL
MODEL 10
REMARK VINA RESULT:      -8.0      3.656      6.893
REMARK  2 active torsions:
REMARK  status: ('A' for Active; 'I' for Inactive)
REMARK    1  A    between atoms: C2_5  and  C1_2 
REMARK    2  A    between atoms: C7_10  and  N1_11 
REMARK       I    between atoms: N1_11  and  C8_12 
ROOT
ATOM      1  N1  <1> d           3.653  46.754  54.245  0.00  0.00    -0.284 N 
ATOM      2  C8  <1> d           4.838  46.563  53.429  0.00  0.00     0.220 A 
ATOM      3  N2  <1> d           5.820  47.433  53.589  0.00  0.00    -0.223 NA
ATOM      4  C9  <1> d           6.969  47.290  52.840  0.00  0.00     0.116 A 
ATOM      5  C10 <1> d           7.185  46.260  51.885  0.00  0.00     0.049 A 
ATOM      6  N3  <1> d           4.948  45.553  52.550  0.00  0.00    -0.214 NA
ATOM      7  C11 <1> d           6.078  45.336  51.745  0.00  0.00     0.084 A 
ATOM      8  C12 <1> d           6.013  44.205  50.852  0.00  0.00     0.060 A 
ATOM      9  S1  <1> d           4.482  43.258  50.919  0.00  0.00    -0.071 SA
ATOM     10  C13 <1> d           6.855  43.595  49.883  0.00  0.00     0.055 A 
ATOM     11  C14 <1> d           8.277  44.055  49.463  0.00  0.00     0.067 C 
ATOM     12  N4  <1> d           6.317  42.452  49.253  0.00  0.00    -0.249 NA
ATOM     13  C15 <1> d           5.074  42.210  49.743  0.00  0.00     0.076 A 
ATOM     14  C16 <1> d           4.133  41.103  49.364  0.00  0.00     0.074 C 
ATOM     15  H5  <1> d           3.788  47.563  54.817  0.00  0.00     0.155 HD
ENDROOT
BRANCH   1  16
ATOM     16  C7  <1> d           2.314  46.187  54.540  0.00  0.00     0.034 A 
ATOM     17  C4  <1> d           1.319  45.962  53.440  0.00  0.00     0.024 A 
ATOM     18  C3  <1> d           0.014  45.440  53.747  0.00  0.00     0.014 A 
ATOM     19  C2  <1> d          -0.336  45.128  55.122  0.00  0.00     0.055 A 
ATOM     20  C5  <1> d           0.652  45.340  56.177  0.00  0.00     0.014 A 
ATOM     21  C6  <1> d           1.934  45.854  55.882  0.00  0.00     0.024 A 
BRANCH  19  22
ATOM     22  C1  <1> d          -1.798  44.577  55.485  0.00  0.00     0.417 C 
ATOM     23  F1  <1> d          -1.796  44.210  56.848  0.00  0.00    -0.166 F 
ATOM     24  F2  <1> d          -2.771  45.583  55.280  0.00  0.00    -0.166 F 
ATOM     25  F3  <1> d          -2.086  43.463  54.691  0.00  0.00    -0.166 F 
ENDBRANCH  19  22
ENDBRANCH   1  16
TORSDOF 2
ENDMDL
