MODEL 1
REMARK VINA RESULT:      -7.0      0.000      0.000
REMARK  1 active torsions:
REMARK  status: ('A' for Active; 'I' for Inactive)
REMARK    1  A    between atoms: C1_1  and  O1_15 
ROOT
ATOM      1  C1   11 d         -13.881 206.601 114.889  0.00  0.00     0.091 C 
ATOM      2  C2   11 d         -14.056 206.348 113.373  0.00  0.00    -0.024 A 
ATOM      3  C3   11 d         -14.894 205.282 112.953  0.00  0.00     0.010 A 
ATOM      4  C4   11 d         -15.122 205.018 111.593  0.00  0.00     0.001 A 
ATOM      5  C5   11 d         -14.531 205.822 110.616  0.00  0.00     0.000 A 
ATOM      6  C6   11 d         -13.716 206.891 110.998  0.00  0.00     0.001 A 
ATOM      7  C7   11 d         -13.487 207.155 112.357  0.00  0.00     0.010 A 
ATOM      8  C8   11 d         -13.375 208.008 115.375  0.00  0.00     0.046 C 
ATOM      9  C9   11 d         -11.849 208.267 115.242  0.00  0.00     0.242 C 
ATOM     10  N1   11 d         -10.984 207.131 115.716  0.00  0.00    -0.074 N 
ATOM     11  C10  11 d         -11.445 205.811 115.167  0.00  0.00     0.237 C 
ATOM     12  C11  11 d         -12.923 205.520 115.463  0.00  0.00     0.071 C 
ATOM     13  C12  11 d         -10.818 207.117 117.207  0.00  0.00     0.269 C 
ATOM     14  C13  11 d         -14.211 209.208 114.887  0.00  0.00     0.015 C 
ATOM     15  H9   11 d          -9.999 207.300 115.316  0.00  0.00     0.279 HD
ENDROOT
BRANCH   1  16
ATOM     16  O1   11 d         -15.184 206.479 115.527  0.00  0.00    -0.384 OA
ATOM     17  H20  11 d         -15.427 205.486 115.703  0.00  0.00     0.211 HD
ENDBRANCH   1  16
TORSDOF 1
ENDMDL
MODEL 2
REMARK VINA RESULT:      -7.0      1.622      2.156
REMARK  1 active torsions:
REMARK  status: ('A' for Active; 'I' for Inactive)
REMARK    1  A    between atoms: C1_1  and  O1_15 
ROOT
ATOM      1  C1   11 d         -13.678 207.399 114.466  0.00  0.00     0.091 C 
ATOM      2  C2   11 d         -14.263 206.830 113.153  0.00  0.00    -0.024 A 
ATOM      3  C3   11 d         -15.477 207.375 112.655  0.00  0.00     0.010 A 
ATOM      4  C4   11 d         -16.044 206.927 111.453  0.00  0.00     0.001 A 
ATOM      5  C5   11 d         -15.407 205.934 110.704  0.00  0.00     0.000 A 
ATOM      6  C6   11 d         -14.201 205.393 111.157  0.00  0.00     0.001 A 
ATOM      7  C7   11 d         -13.633 205.839 112.360  0.00  0.00     0.010 A 
ATOM      8  C8   11 d         -12.155 207.175 114.784  0.00  0.00     0.046 C 
ATOM      9  C9   11 d         -11.769 205.769 115.321  0.00  0.00     0.242 C 
ATOM     10  N1   11 d         -12.680 205.245 116.396  0.00  0.00    -0.074 N 
ATOM     11  C10  11 d         -14.128 205.398 116.025  0.00  0.00     0.237 C 
ATOM     12  C11  11 d         -14.505 206.840 115.658  0.00  0.00     0.071 C 
ATOM     13  C12  11 d         -12.362 205.811 117.749  0.00  0.00     0.269 C 
ATOM     14  C13  11 d         -11.181 207.667 113.695  0.00  0.00     0.015 C 
ATOM     15  H9   11 d         -12.496 204.187 116.474  0.00  0.00     0.279 HD
ENDROOT
BRANCH   1  16
ATOM     16  O1   11 d         -13.800 208.849 114.433  0.00  0.00    -0.384 OA
ATOM     17  H20  11 d         -13.680 209.217 113.472  0.00  0.00     0.211 HD
ENDBRANCH   1  16
TORSDOF 1
ENDMDL
MODEL 3
REMARK VINA RESULT:      -6.7      1.654      2.048
REMARK  1 active torsions:
REMARK  status: ('A' for Active; 'I' for Inactive)
REMARK    1  A    between atoms: C1_1  and  O1_15 
ROOT
ATOM      1  C1   11 d         -14.442 206.786 114.646  0.00  0.00     0.091 C 
ATOM      2  C2   11 d         -13.461 206.786 113.450  0.00  0.00    -0.024 A 
ATOM      3  C3   11 d         -13.813 206.063 112.280  0.00  0.00     0.010 A 
ATOM      4  C4   11 d         -12.984 206.049 111.148  0.00  0.00     0.001 A 
ATOM      5  C5   11 d         -11.788 206.770 111.147  0.00  0.00     0.000 A 
ATOM      6  C6   11 d         -11.424 207.508 112.276  0.00  0.00     0.001 A 
ATOM      7  C7   11 d         -12.251 207.522 113.409  0.00  0.00     0.010 A 
ATOM      8  C8   11 d         -14.326 207.919 115.730  0.00  0.00     0.046 C 
ATOM      9  C9   11 d         -13.187 207.751 116.773  0.00  0.00     0.242 C 
ATOM     10  N1   11 d         -13.076 206.367 117.351  0.00  0.00    -0.074 N 
ATOM     11  C10  11 d         -13.106 205.311 116.282  0.00  0.00     0.237 C 
ATOM     12  C11  11 d         -14.337 205.414 115.370  0.00  0.00     0.071 C 
ATOM     13  C12  11 d         -14.071 206.117 118.446  0.00  0.00     0.269 C 
ATOM     14  C13  11 d         -14.402 209.358 115.181  0.00  0.00     0.015 C 
ATOM     15  H9   11 d         -12.108 206.299 117.817  0.00  0.00     0.279 HD
ENDROOT
BRANCH   1  16
ATOM     16  O1   11 d         -15.793 206.957 114.131  0.00  0.00    -0.384 OA
ATOM     17  H20  11 d         -16.139 206.089 113.680  0.00  0.00     0.211 HD
ENDBRANCH   1  16
TORSDOF 1
ENDMDL
MODEL 4
REMARK VINA RESULT:      -6.4      2.467      4.031
REMARK  1 active torsions:
REMARK  status: ('A' for Active; 'I' for Inactive)
REMARK    1  A    between atoms: C1_1  and  O1_15 
ROOT
ATOM      1  C1   11 d         -12.514 207.290 114.011  0.00  0.00     0.091 C 
ATOM      2  C2   11 d         -11.143 207.994 113.892  0.00  0.00    -0.024 A 
ATOM      3  C3   11 d         -10.389 207.821 112.701  0.00  0.00     0.010 A 
ATOM      4  C4   11 d          -9.152 208.458 112.516  0.00  0.00     0.001 A 
ATOM      5  C5   11 d          -8.641 209.298 113.507  0.00  0.00     0.000 A 
ATOM      6  C6   11 d          -9.368 209.504 114.682  0.00  0.00     0.001 A 
ATOM      7  C7   11 d         -10.605 208.867 114.871  0.00  0.00     0.010 A 
ATOM      8  C8   11 d         -13.556 207.820 115.062  0.00  0.00     0.046 C 
ATOM      9  C9   11 d         -13.310 207.403 116.538  0.00  0.00     0.242 C 
ATOM     10  N1   11 d         -12.972 205.949 116.723  0.00  0.00    -0.074 N 
ATOM     11  C10  11 d         -11.913 205.495 115.759  0.00  0.00     0.237 C 
ATOM     12  C11  11 d         -12.272 205.781 114.294  0.00  0.00     0.071 C 
ATOM     13  C12  11 d         -14.187 205.069 116.712  0.00  0.00     0.269 C 
ATOM     14  C13  11 d         -13.911 209.315 114.934  0.00  0.00     0.015 C 
ATOM     15  H9   11 d         -12.550 205.849 117.708  0.00  0.00     0.279 HD
ENDROOT
BRANCH   1  16
ATOM     16  O1   11 d         -13.216 207.436 112.745  0.00  0.00    -0.384 OA
ATOM     17  H20  11 d         -12.602 207.205 111.942  0.00  0.00     0.211 HD
ENDBRANCH   1  16
TORSDOF 1
ENDMDL
MODEL 5
REMARK VINA RESULT:      -6.4      1.786      2.835
REMARK  1 active torsions:
REMARK  status: ('A' for Active; 'I' for Inactive)
REMARK    1  A    between atoms: C1_1  and  O1_15 
ROOT
ATOM      1  C1   11 d         -13.033 207.516 114.164  0.00  0.00     0.091 C 
ATOM      2  C2   11 d         -13.844 206.893 113.003  0.00  0.00    -0.024 A 
ATOM      3  C3   11 d         -14.182 207.711 111.893  0.00  0.00     0.010 A 
ATOM      4  C4   11 d         -14.887 207.201 110.792  0.00  0.00     0.001 A 
ATOM      5  C5   11 d         -15.261 205.855 110.762  0.00  0.00     0.000 A 
ATOM      6  C6   11 d         -14.925 205.020 111.830  0.00  0.00     0.001 A 
ATOM      7  C7   11 d         -14.221 205.529 112.933  0.00  0.00     0.010 A 
ATOM      8  C8   11 d         -12.252 206.567 115.144  0.00  0.00     0.046 C 
ATOM      9  C9   11 d         -13.104 205.858 116.232  0.00  0.00     0.242 C 
ATOM     10  N1   11 d         -14.083 206.757 116.936  0.00  0.00    -0.074 N 
ATOM     11  C10  11 d         -14.873 207.590 115.966  0.00  0.00     0.237 C 
ATOM     12  C11  11 d         -13.988 208.403 115.012  0.00  0.00     0.071 C 
ATOM     13  C12  11 d         -13.442 207.574 118.018  0.00  0.00     0.269 C 
ATOM     14  C13  11 d         -11.258 205.603 114.467  0.00  0.00     0.015 C 
ATOM     15  H9   11 d         -14.791 206.118 117.435  0.00  0.00     0.279 HD
ENDROOT
BRANCH   1  16
ATOM     16  O1   11 d         -11.981 208.346 113.596  0.00  0.00    -0.384 OA
ATOM     17  H20  11 d         -11.231 208.531 114.286  0.00  0.00     0.211 HD
ENDBRANCH   1  16
TORSDOF 1
ENDMDL
MODEL 6
REMARK VINA RESULT:      -6.3      2.092      3.088
REMARK  1 active torsions:
REMARK  status: ('A' for Active; 'I' for Inactive)
REMARK    1  A    between atoms: C1_1  and  O1_15 
ROOT
ATOM      1  C1   11 d         -13.386 207.433 116.239  0.00  0.00     0.091 C 
ATOM      2  C2   11 d         -12.865 207.124 114.817  0.00  0.00    -0.024 A 
ATOM      3  C3   11 d         -13.636 207.546 113.701  0.00  0.00     0.010 A 
ATOM      4  C4   11 d         -13.204 207.327 112.384  0.00  0.00     0.001 A 
ATOM      5  C5   11 d         -11.983 206.694 112.144  0.00  0.00     0.000 A 
ATOM      6  C6   11 d         -11.191 206.286 113.220  0.00  0.00     0.001 A 
ATOM      7  C7   11 d         -11.622 206.503 114.538  0.00  0.00     0.010 A 
ATOM      8  C8   11 d         -12.376 207.418 117.443  0.00  0.00     0.046 C 
ATOM      9  C9   11 d         -11.980 206.017 117.984  0.00  0.00     0.242 C 
ATOM     10  N1   11 d         -13.138 205.075 118.173  0.00  0.00    -0.074 N 
ATOM     11  C10  11 d         -14.039 205.050 116.972  0.00  0.00     0.237 C 
ATOM     12  C11  11 d         -14.540 206.444 116.567  0.00  0.00     0.071 C 
ATOM     13  C12  11 d         -13.879 205.323 119.454  0.00  0.00     0.269 C 
ATOM     14  C13  11 d         -11.154 208.344 117.282  0.00  0.00     0.015 C 
ATOM     15  H9   11 d         -12.724 204.086 118.264  0.00  0.00     0.279 HD
ENDROOT
BRANCH   1  16
ATOM     16  O1   11 d         -13.900 208.795 116.254  0.00  0.00    -0.384 OA
ATOM     17  H20  11 d         -14.935 208.810 116.191  0.00  0.00     0.211 HD
ENDBRANCH   1  16
TORSDOF 1
ENDMDL
MODEL 7
REMARK VINA RESULT:      -6.1      1.938      2.748
REMARK  1 active torsions:
REMARK  status: ('A' for Active; 'I' for Inactive)
REMARK    1  A    between atoms: C1_1  and  O1_15 
ROOT
ATOM      1  C1   11 d         -11.557 206.608 114.478  0.00  0.00     0.091 C 
ATOM      2  C2   11 d         -12.677 206.862 113.442  0.00  0.00    -0.024 A 
ATOM      3  C3   11 d         -12.376 206.713 112.062  0.00  0.00     0.010 A 
ATOM      4  C4   11 d         -13.353 206.897 111.073  0.00  0.00     0.001 A 
ATOM      5  C5   11 d         -14.663 207.219 111.434  0.00  0.00     0.000 A 
ATOM      6  C6   11 d         -14.996 207.353 112.785  0.00  0.00     0.001 A 
ATOM      7  C7   11 d         -14.019 207.171 113.776  0.00  0.00     0.010 A 
ATOM      8  C8   11 d         -11.951 206.299 115.968  0.00  0.00     0.046 C 
ATOM      9  C9   11 d         -12.357 207.523 116.834  0.00  0.00     0.242 C 
ATOM     10  N1   11 d         -11.443 208.709 116.699  0.00  0.00    -0.074 N 
ATOM     11  C10  11 d         -11.153 209.029 115.260  0.00  0.00     0.237 C 
ATOM     12  C11  11 d         -10.597 207.831 114.478  0.00  0.00     0.071 C 
ATOM     13  C12  11 d         -10.200 208.577 117.529  0.00  0.00     0.269 C 
ATOM     14  C13  11 d         -12.914 205.110 116.157  0.00  0.00     0.015 C 
ATOM     15  H9   11 d         -11.970 209.558 117.099  0.00  0.00     0.279 HD
ENDROOT
BRANCH   1  16
ATOM     16  O1   11 d         -10.821 205.418 114.076  0.00  0.00    -0.384 OA
ATOM     17  H20  11 d          -9.841 205.448 114.411  0.00  0.00     0.211 HD
ENDBRANCH   1  16
TORSDOF 1
ENDMDL
MODEL 8
REMARK VINA RESULT:      -6.1      2.076      4.433
REMARK  1 active torsions:
REMARK  status: ('A' for Active; 'I' for Inactive)
REMARK    1  A    between atoms: C1_1  and  O1_15 
ROOT
ATOM      1  C1   11 d         -13.424 207.696 114.237  0.00  0.00     0.091 C 
ATOM      2  C2   11 d         -13.580 206.862 115.530  0.00  0.00    -0.024 A 
ATOM      3  C3   11 d         -13.325 207.488 116.779  0.00  0.00     0.010 A 
ATOM      4  C4   11 d         -13.479 206.799 117.992  0.00  0.00     0.001 A 
ATOM      5  C5   11 d         -13.908 205.470 117.992  0.00  0.00     0.000 A 
ATOM      6  C6   11 d         -14.187 204.833 116.780  0.00  0.00     0.001 A 
ATOM      7  C7   11 d         -14.032 205.520 115.567  0.00  0.00     0.010 A 
ATOM      8  C8   11 d         -14.135 207.207 112.923  0.00  0.00     0.046 C 
ATOM      9  C9   11 d         -13.436 206.048 112.160  0.00  0.00     0.242 C 
ATOM     10  N1   11 d         -11.950 206.219 111.999  0.00  0.00    -0.074 N 
ATOM     11  C10  11 d         -11.289 206.605 113.292  0.00  0.00     0.237 C 
ATOM     12  C11  11 d         -11.908 207.856 113.933  0.00  0.00     0.071 C 
ATOM     13  C12  11 d         -11.594 207.136 110.866  0.00  0.00     0.269 C 
ATOM     14  C13  11 d         -15.655 206.985 113.046  0.00  0.00     0.015 C 
ATOM     15  H9   11 d         -11.552 205.256 111.730  0.00  0.00     0.279 HD
ENDROOT
BRANCH   1  16
ATOM     16  O1   11 d         -14.011 209.008 114.463  0.00  0.00    -0.384 OA
ATOM     17  H20  11 d         -14.896 208.940 115.000  0.00  0.00     0.211 HD
ENDBRANCH   1  16
TORSDOF 1
ENDMDL
MODEL 9
REMARK VINA RESULT:      -5.8      2.266      4.609
REMARK  1 active torsions:
REMARK  status: ('A' for Active; 'I' for Inactive)
REMARK    1  A    between atoms: C1_1  and  O1_15 
ROOT
ATOM      1  C1   11 d         -13.028 207.120 113.780  0.00  0.00     0.091 C 
ATOM      2  C2   11 d         -13.136 206.156 114.985  0.00  0.00    -0.024 A 
ATOM      3  C3   11 d         -11.941 205.663 115.573  0.00  0.00     0.010 A 
ATOM      4  C4   11 d         -11.969 204.811 116.688  0.00  0.00     0.001 A 
ATOM      5  C5   11 d         -13.189 204.441 117.257  0.00  0.00     0.000 A 
ATOM      6  C6   11 d         -14.381 204.926 116.714  0.00  0.00     0.001 A 
ATOM      7  C7   11 d         -14.357 205.776 115.598  0.00  0.00     0.010 A 
ATOM      8  C8   11 d         -14.255 208.034 113.420  0.00  0.00     0.046 C 
ATOM      9  C9   11 d         -15.418 207.344 112.655  0.00  0.00     0.242 C 
ATOM     10  N1   11 d         -14.977 206.471 111.513  0.00  0.00    -0.074 N 
ATOM     11  C10  11 d         -13.859 205.551 111.913  0.00  0.00     0.237 C 
ATOM     12  C11  11 d         -12.657 206.292 112.518  0.00  0.00     0.071 C 
ATOM     13  C12  11 d         -14.670 207.256 110.272  0.00  0.00     0.269 C 
ATOM     14  C13  11 d         -14.765 208.925 114.570  0.00  0.00     0.015 C 
ATOM     15  H9   11 d         -15.812 205.842 111.260  0.00  0.00     0.279 HD
ENDROOT
BRANCH   1  16
ATOM     16  O1   11 d         -11.968 208.079 114.055  0.00  0.00    -0.384 OA
ATOM     17  H20  11 d         -12.281 209.051 113.872  0.00  0.00     0.211 HD
ENDBRANCH   1  16
TORSDOF 1
ENDMDL
MODEL 10
REMARK VINA RESULT:      -5.7      2.912      4.433
REMARK  1 active torsions:
REMARK  status: ('A' for Active; 'I' for Inactive)
REMARK    1  A    between atoms: C1_1  and  O1_15 
ROOT
ATOM      1  C1   11 d         -13.161 207.416 117.462  0.00  0.00     0.091 C 
ATOM      2  C2   11 d         -13.802 206.030 117.707  0.00  0.00    -0.024 A 
ATOM      3  C3   11 d         -14.150 205.666 119.035  0.00  0.00     0.010 A 
ATOM      4  C4   11 d         -14.765 204.438 119.323  0.00  0.00     0.001 A 
ATOM      5  C5   11 d         -15.064 203.546 118.291  0.00  0.00     0.000 A 
ATOM      6  C6   11 d         -14.752 203.884 116.972  0.00  0.00     0.001 A 
ATOM      7  C7   11 d         -14.136 205.111 116.682  0.00  0.00     0.010 A 
ATOM      8  C8   11 d         -13.204 208.032 116.016  0.00  0.00     0.046 C 
ATOM      9  C9   11 d         -12.171 207.469 115.003  0.00  0.00     0.242 C 
ATOM     10  N1   11 d         -10.775 207.339 115.548  0.00  0.00    -0.074 N 
ATOM     11  C10  11 d         -10.761 206.671 116.893  0.00  0.00     0.237 C 
ATOM     12  C11  11 d         -11.675 207.360 117.917  0.00  0.00     0.071 C 
ATOM     13  C12  11 d         -10.028 208.641 115.535  0.00  0.00     0.269 C 
ATOM     14  C13  11 d         -14.612 208.155 115.400  0.00  0.00     0.015 C 
ATOM     15  H9   11 d         -10.237 206.689 114.880  0.00  0.00     0.279 HD
ENDROOT
BRANCH   1  16
ATOM     16  O1   11 d         -13.873 208.400 118.264  0.00  0.00    -0.384 OA
ATOM     17  H20  11 d         -14.562 208.926 117.694  0.00  0.00     0.211 HD
ENDBRANCH   1  16
TORSDOF 1
ENDMDL
