MODEL 1
REMARK VINA RESULT:      -6.3      0.000      0.000
REMARK  3 active torsions:
REMARK  status: ('A' for Active; 'I' for Inactive)
REMARK    1  A    between atoms: C1_1  and  C2_2 
REMARK    2  A    between atoms: C1_1  and  C8_9 
REMARK    3  A    between atoms: C9_10  and  C10_11 
ROOT
ATOM      1  C8   11 d         -15.283 204.300 123.548  0.00  0.00     0.079 C 
ATOM      2  C9   11 d         -13.799 204.726 123.660  0.00  0.00     0.103 C 
ATOM      3  C11  11 d         -13.291 205.414 122.372  0.00  0.00     0.056 C 
ATOM      4  C12  11 d         -13.947 204.970 121.065  0.00  0.00    -0.040 C 
ATOM      5  C13  11 d         -14.908 203.986 121.038  0.00  0.00    -0.040 C 
ATOM      6  C14  11 d         -15.569 203.549 119.771  0.00  0.00    -0.029 A 
ATOM      7  C15  11 d         -14.796 203.058 118.699  0.00  0.00     0.012 A 
ATOM      8  C16  11 d         -15.411 202.651 117.505  0.00  0.00     0.001 A 
ATOM      9  C17  11 d         -16.804 202.728 117.373  0.00  0.00     0.000 A 
ATOM     10  C18  11 d         -17.583 203.214 118.432  0.00  0.00     0.001 A 
ATOM     11  C19  11 d         -16.970 203.624 119.626  0.00  0.00     0.012 A 
ATOM     12  C20  11 d         -15.413 203.366 122.334  0.00  0.00     0.053 C 
ATOM     13  C21  11 d         -13.550 205.735 119.843  0.00  0.00    -0.029 A 
ATOM     14  C22  11 d         -14.525 206.394 119.065  0.00  0.00     0.012 A 
ATOM     15  C23  11 d         -14.155 207.124 117.926  0.00  0.00     0.001 A 
ATOM     16  C24  11 d         -12.805 207.210 117.558  0.00  0.00     0.000 A 
ATOM     17  C25  11 d         -11.825 206.571 118.331  0.00  0.00     0.001 A 
ATOM     18  C26  11 d         -12.194 205.838 119.470  0.00  0.00     0.012 A 
ENDROOT
BRANCH   1  19
ATOM     19  C1   11 d         -16.318 205.427 123.465  0.00  0.00     0.164 C 
ATOM     20  O1   11 d         -16.123 206.490 124.113  0.00  0.00    -0.292 OA
BRANCH  19  21
ATOM     21  C2   11 d         -17.604 205.284 122.710  0.00  0.00     0.010 A 
ATOM     22  C3   11 d         -17.882 206.155 121.632  0.00  0.00     0.015 A 
ATOM     23  C4   11 d         -19.064 206.027 120.887  0.00  0.00     0.001 A 
ATOM     24  C5   11 d         -19.987 205.024 121.204  0.00  0.00     0.000 A 
ATOM     25  C6   11 d         -19.730 204.147 122.266  0.00  0.00     0.001 A 
ATOM     26  C7   11 d         -18.547 204.273 123.013  0.00  0.00     0.015 A 
ENDBRANCH  19  21
ENDBRANCH   1  19
BRANCH   2  27
ATOM     27  C10  11 d         -13.466 205.473 124.935  0.00  0.00     0.178 C 
ATOM     28  O2   11 d         -13.853 205.004 126.096  0.00  0.00    -0.648 OA
ATOM     29  O3   11 d         -12.893 206.648 124.882  0.00  0.00    -0.648 OA
ENDBRANCH   2  27
TORSDOF 3
ENDMDL
MODEL 2
REMARK VINA RESULT:      -6.2      6.216      9.677
REMARK  3 active torsions:
REMARK  status: ('A' for Active; 'I' for Inactive)
REMARK    1  A    between atoms: C1_1  and  C2_2 
REMARK    2  A    between atoms: C1_1  and  C8_9 
REMARK    3  A    between atoms: C9_10  and  C10_11 
ROOT
ATOM      1  C8   11 d          -8.728 206.418 119.057  0.00  0.00     0.079 C 
ATOM      2  C9   11 d          -8.316 206.384 120.549  0.00  0.00     0.103 C 
ATOM      3  C11  11 d          -7.513 207.639 120.961  0.00  0.00     0.056 C 
ATOM      4  C12  11 d          -6.669 208.292 119.866  0.00  0.00    -0.040 C 
ATOM      5  C13  11 d          -6.603 207.765 118.596  0.00  0.00    -0.040 C 
ATOM      6  C14  11 d          -5.795 208.398 117.511  0.00  0.00    -0.029 A 
ATOM      7  C15  11 d          -4.410 208.599 117.681  0.00  0.00     0.012 A 
ATOM      8  C16  11 d          -3.647 209.197 116.667  0.00  0.00     0.001 A 
ATOM      9  C17  11 d          -4.260 209.596 115.471  0.00  0.00     0.000 A 
ATOM     10  C18  11 d          -5.636 209.401 115.290  0.00  0.00     0.001 A 
ATOM     11  C19  11 d          -6.402 208.806 116.304  0.00  0.00     0.012 A 
ATOM     12  C20  11 d          -7.446 206.554 118.220  0.00  0.00     0.053 C 
ATOM     13  C21  11 d          -6.006 209.580 120.234  0.00  0.00    -0.029 A 
ATOM     14  C22  11 d          -6.260 210.752 119.492  0.00  0.00     0.012 A 
ATOM     15  C23  11 d          -5.650 211.965 119.842  0.00  0.00     0.001 A 
ATOM     16  C24  11 d          -4.786 212.022 120.945  0.00  0.00     0.000 A 
ATOM     17  C25  11 d          -4.536 210.866 121.699  0.00  0.00     0.001 A 
ATOM     18  C26  11 d          -5.144 209.651 121.348  0.00  0.00     0.012 A 
ENDROOT
BRANCH   1  19
ATOM     19  C1   11 d          -9.745 207.488 118.649  0.00  0.00     0.164 C 
ATOM     20  O1   11 d         -10.073 208.376 119.482  0.00  0.00    -0.292 OA
BRANCH  19  21
ATOM     21  C2   11 d         -10.440 207.473 117.321  0.00  0.00     0.010 A 
ATOM     22  C3   11 d         -10.125 208.458 116.358  0.00  0.00     0.015 A 
ATOM     23  C4   11 d         -10.736 208.453 115.094  0.00  0.00     0.001 A 
ATOM     24  C5   11 d         -11.670 207.462 114.771  0.00  0.00     0.000 A 
ATOM     25  C6   11 d         -11.993 206.474 115.710  0.00  0.00     0.001 A 
ATOM     26  C7   11 d         -11.383 206.477 116.975  0.00  0.00     0.015 A 
ENDBRANCH  19  21
ENDBRANCH   1  19
BRANCH   2  27
ATOM     27  C10  11 d          -9.447 206.033 121.494  0.00  0.00     0.178 C 
ATOM     28  O2   11 d         -10.197 204.983 121.266  0.00  0.00    -0.648 OA
ATOM     29  O3   11 d          -9.760 206.838 122.476  0.00  0.00    -0.648 OA
ENDBRANCH   2  27
TORSDOF 3
ENDMDL
MODEL 3
REMARK VINA RESULT:      -6.2      7.706     12.226
REMARK  3 active torsions:
REMARK  status: ('A' for Active; 'I' for Inactive)
REMARK    1  A    between atoms: C1_1  and  C2_2 
REMARK    2  A    between atoms: C1_1  and  C8_9 
REMARK    3  A    between atoms: C9_10  and  C10_11 
ROOT
ATOM      1  C8   11 d          -7.653 207.375 117.381  0.00  0.00     0.079 C 
ATOM      2  C9   11 d          -8.553 207.592 118.622  0.00  0.00     0.103 C 
ATOM      3  C11  11 d          -8.052 208.754 119.510  0.00  0.00     0.056 C 
ATOM      4  C12  11 d          -6.544 209.008 119.504  0.00  0.00    -0.040 C 
ATOM      5  C13  11 d          -5.683 208.219 118.777  0.00  0.00    -0.040 C 
ATOM      6  C14  11 d          -4.209 208.461 118.750  0.00  0.00    -0.029 A 
ATOM      7  C15  11 d          -3.466 208.460 119.948  0.00  0.00     0.012 A 
ATOM      8  C16  11 d          -2.082 208.692 119.929  0.00  0.00     0.001 A 
ATOM      9  C17  11 d          -1.427 208.924 118.711  0.00  0.00     0.000 A 
ATOM     10  C18  11 d          -2.155 208.926 117.513  0.00  0.00     0.001 A 
ATOM     11  C19  11 d          -3.540 208.697 117.530  0.00  0.00     0.012 A 
ATOM     12  C20  11 d          -6.222 207.113 117.880  0.00  0.00     0.053 C 
ATOM     13  C21  11 d          -6.083 210.216 120.255  0.00  0.00    -0.029 A 
ATOM     14  C22  11 d          -5.352 211.228 119.599  0.00  0.00     0.012 A 
ATOM     15  C23  11 d          -4.929 212.369 120.297  0.00  0.00     0.001 A 
ATOM     16  C24  11 d          -5.242 212.515 121.655  0.00  0.00     0.000 A 
ATOM     17  C25  11 d          -5.980 211.522 122.315  0.00  0.00     0.001 A 
ATOM     18  C26  11 d          -6.402 210.378 121.619  0.00  0.00     0.012 A 
ENDROOT
BRANCH   1  19
ATOM     19  C1   11 d          -7.654 208.487 116.328  0.00  0.00     0.164 C 
ATOM     20  O1   11 d          -8.723 209.112 116.094  0.00  0.00    -0.292 OA
BRANCH  19  21
ATOM     21  C2   11 d          -6.450 208.808 115.495  0.00  0.00     0.010 A 
ATOM     22  C3   11 d          -5.771 207.768 114.820  0.00  0.00     0.015 A 
ATOM     23  C4   11 d          -4.659 208.041 114.008  0.00  0.00     0.001 A 
ATOM     24  C5   11 d          -4.208 209.358 113.856  0.00  0.00     0.000 A 
ATOM     25  C6   11 d          -4.869 210.403 114.514  0.00  0.00     0.001 A 
ATOM     26  C7   11 d          -5.982 210.132 115.326  0.00  0.00     0.015 A 
ENDBRANCH  19  21
ENDBRANCH   1  19
BRANCH   2  27
ATOM     27  C10  11 d         -10.034 207.644 118.309  0.00  0.00     0.178 C 
ATOM     28  O2   11 d         -10.764 208.646 118.732  0.00  0.00    -0.648 OA
ATOM     29  O3   11 d         -10.619 206.634 117.717  0.00  0.00    -0.648 OA
ENDBRANCH   2  27
TORSDOF 3
ENDMDL
MODEL 4
REMARK VINA RESULT:      -6.1      6.631     10.459
REMARK  3 active torsions:
REMARK  status: ('A' for Active; 'I' for Inactive)
REMARK    1  A    between atoms: C1_1  and  C2_2 
REMARK    2  A    between atoms: C1_1  and  C8_9 
REMARK    3  A    between atoms: C9_10  and  C10_11 
ROOT
ATOM      1  C8   11 d          -9.424 208.041 119.670  0.00  0.00     0.079 C 
ATOM      2  C9   11 d          -9.966 208.241 118.234  0.00  0.00     0.103 C 
ATOM      3  C11  11 d          -8.883 207.987 117.161  0.00  0.00     0.056 C 
ATOM      4  C12  11 d          -7.441 208.288 117.570  0.00  0.00    -0.040 C 
ATOM      5  C13  11 d          -7.135 208.795 118.813  0.00  0.00    -0.040 C 
ATOM      6  C14  11 d          -5.731 209.083 119.233  0.00  0.00    -0.029 A 
ATOM      7  C15  11 d          -4.934 209.976 118.488  0.00  0.00     0.012 A 
ATOM      8  C16  11 d          -3.614 210.246 118.876  0.00  0.00     0.001 A 
ATOM      9  C17  11 d          -3.077 209.629 120.015  0.00  0.00     0.000 A 
ATOM     10  C18  11 d          -3.859 208.740 120.765  0.00  0.00     0.001 A 
ATOM     11  C19  11 d          -5.180 208.466 120.377  0.00  0.00     0.012 A 
ATOM     12  C20  11 d          -8.227 208.988 119.856  0.00  0.00     0.053 C 
ATOM     13  C21  11 d          -6.389 207.911 116.578  0.00  0.00    -0.029 A 
ATOM     14  C22  11 d          -5.357 207.017 116.936  0.00  0.00     0.012 A 
ATOM     15  C23  11 d          -4.376 206.650 116.004  0.00  0.00     0.001 A 
ATOM     16  C24  11 d          -4.421 207.165 114.701  0.00  0.00     0.000 A 
ATOM     17  C25  11 d          -5.448 208.043 114.329  0.00  0.00     0.001 A 
ATOM     18  C26  11 d          -6.430 208.413 115.261  0.00  0.00     0.012 A 
ENDROOT
BRANCH   1  19
ATOM     19  C1   11 d          -9.038 206.613 120.067  0.00  0.00     0.164 C 
ATOM     20  O1   11 d          -9.682 205.644 119.581  0.00  0.00    -0.292 OA
BRANCH  19  21
ATOM     21  C2   11 d          -7.977 206.318 121.083  0.00  0.00     0.010 A 
ATOM     22  C3   11 d          -6.922 205.436 120.756  0.00  0.00     0.015 A 
ATOM     23  C4   11 d          -5.898 205.164 121.675  0.00  0.00     0.001 A 
ATOM     24  C5   11 d          -5.908 205.772 122.937  0.00  0.00     0.000 A 
ATOM     25  C6   11 d          -6.942 206.652 123.279  0.00  0.00     0.001 A 
ATOM     26  C7   11 d          -7.968 206.926 122.361  0.00  0.00     0.015 A 
ENDBRANCH  19  21
ENDBRANCH   1  19
BRANCH   2  27
ATOM     27  C10  11 d         -11.282 207.539 117.968  0.00  0.00     0.178 C 
ATOM     28  O2   11 d         -11.419 206.771 116.916  0.00  0.00    -0.648 OA
ATOM     29  O3   11 d         -12.326 207.787 118.716  0.00  0.00    -0.648 OA
ENDBRANCH   2  27
TORSDOF 3
ENDMDL
MODEL 5
REMARK VINA RESULT:      -6.1      3.482      7.618
REMARK  3 active torsions:
REMARK  status: ('A' for Active; 'I' for Inactive)
REMARK    1  A    between atoms: C1_1  and  C2_2 
REMARK    2  A    between atoms: C1_1  and  C8_9 
REMARK    3  A    between atoms: C9_10  and  C10_11 
ROOT
ATOM      1  C8   11 d         -18.916 205.173 123.093  0.00  0.00     0.079 C 
ATOM      2  C9   11 d         -19.234 205.856 124.444  0.00  0.00     0.103 C 
ATOM      3  C11  11 d         -19.580 204.832 125.549  0.00  0.00     0.056 C 
ATOM      4  C12  11 d         -20.236 203.531 125.084  0.00  0.00    -0.040 C 
ATOM      5  C13  11 d         -20.534 203.307 123.760  0.00  0.00    -0.040 C 
ATOM      6  C14  11 d         -21.163 202.037 123.287  0.00  0.00    -0.029 A 
ATOM      7  C15  11 d         -22.404 201.620 123.811  0.00  0.00     0.012 A 
ATOM      8  C16  11 d         -22.996 200.426 123.373  0.00  0.00     0.001 A 
ATOM      9  C17  11 d         -22.356 199.639 122.406  0.00  0.00     0.000 A 
ATOM     10  C18  11 d         -21.123 200.044 121.877  0.00  0.00     0.001 A 
ATOM     11  C19  11 d         -20.527 201.237 122.315  0.00  0.00     0.012 A 
ATOM     12  C20  11 d         -20.136 204.324 122.698  0.00  0.00     0.053 C 
ATOM     13  C21  11 d         -20.441 202.491 126.138  0.00  0.00    -0.029 A 
ATOM     14  C22  11 d         -19.874 201.207 125.995  0.00  0.00     0.012 A 
ATOM     15  C23  11 d         -20.052 200.233 126.987  0.00  0.00     0.001 A 
ATOM     16  C24  11 d         -20.792 200.535 128.139  0.00  0.00     0.000 A 
ATOM     17  C25  11 d         -21.349 201.811 128.300  0.00  0.00     0.001 A 
ATOM     18  C26  11 d         -21.174 202.787 127.306  0.00  0.00     0.012 A 
ENDROOT
BRANCH   1  19
ATOM     19  C1   11 d         -17.639 204.329 123.032  0.00  0.00     0.164 C 
ATOM     20  O1   11 d         -17.116 203.926 124.106  0.00  0.00    -0.292 OA
BRANCH  19  21
ATOM     21  C2   11 d         -16.930 204.032 121.746  0.00  0.00     0.010 A 
ATOM     22  C3   11 d         -15.743 204.728 121.426  0.00  0.00     0.015 A 
ATOM     23  C4   11 d         -15.040 204.451 120.244  0.00  0.00     0.001 A 
ATOM     24  C5   11 d         -15.511 203.471 119.361  0.00  0.00     0.000 A 
ATOM     25  C6   11 d         -16.684 202.768 119.661  0.00  0.00     0.001 A 
ATOM     26  C7   11 d         -17.389 203.043 120.844  0.00  0.00     0.015 A 
ENDBRANCH  19  21
ENDBRANCH   1  19
BRANCH   2  27
ATOM     27  C10  11 d         -18.220 206.901 124.862  0.00  0.00     0.178 C 
ATOM     28  O2   11 d         -17.313 206.617 125.763  0.00  0.00    -0.648 OA
ATOM     29  O3   11 d         -18.314 208.127 124.415  0.00  0.00    -0.648 OA
ENDBRANCH   2  27
TORSDOF 3
ENDMDL
MODEL 6
REMARK VINA RESULT:      -6.1      2.908      7.328
REMARK  3 active torsions:
REMARK  status: ('A' for Active; 'I' for Inactive)
REMARK    1  A    between atoms: C1_1  and  C2_2 
REMARK    2  A    between atoms: C1_1  and  C8_9 
REMARK    3  A    between atoms: C9_10  and  C10_11 
ROOT
ATOM      1  C8   11 d         -18.886 204.555 120.744  0.00  0.00     0.079 C 
ATOM      2  C9   11 d         -18.761 205.788 121.672  0.00  0.00     0.103 C 
ATOM      3  C11  11 d         -18.841 205.404 123.167  0.00  0.00     0.056 C 
ATOM      4  C12  11 d         -19.684 204.174 123.505  0.00  0.00    -0.040 C 
ATOM      5  C13  11 d         -20.362 203.475 122.532  0.00  0.00    -0.040 C 
ATOM      6  C14  11 d         -21.179 202.263 122.844  0.00  0.00    -0.029 A 
ATOM      7  C15  11 d         -22.242 202.341 123.766  0.00  0.00     0.012 A 
ATOM      8  C16  11 d         -23.010 201.205 124.065  0.00  0.00     0.001 A 
ATOM      9  C17  11 d         -22.724 199.982 123.443  0.00  0.00     0.000 A 
ATOM     10  C18  11 d         -21.670 199.893 122.523  0.00  0.00     0.001 A 
ATOM     11  C19  11 d         -20.899 201.027 122.224  0.00  0.00     0.012 A 
ATOM     12  C20  11 d         -20.219 203.860 121.066  0.00  0.00     0.053 C 
ATOM     13  C21  11 d         -19.645 203.729 124.932  0.00  0.00    -0.029 A 
ATOM     14  C22  11 d         -19.226 202.423 125.261  0.00  0.00     0.012 A 
ATOM     15  C23  11 d         -19.175 202.006 126.599  0.00  0.00     0.001 A 
ATOM     16  C24  11 d         -19.535 202.893 127.623  0.00  0.00     0.000 A 
ATOM     17  C25  11 d         -19.940 204.198 127.309  0.00  0.00     0.001 A 
ATOM     18  C26  11 d         -19.994 204.617 125.970  0.00  0.00     0.012 A 
ENDROOT
BRANCH   1  19
ATOM     19  C1   11 d         -17.736 203.544 120.785  0.00  0.00     0.164 C 
ATOM     20  O1   11 d         -17.577 202.834 121.814  0.00  0.00    -0.292 OA
BRANCH  19  21
ATOM     21  C2   11 d         -16.730 203.424 119.680  0.00  0.00     0.010 A 
ATOM     22  C3   11 d         -17.043 202.664 118.531  0.00  0.00     0.015 A 
ATOM     23  C4   11 d         -16.134 202.557 117.467  0.00  0.00     0.001 A 
ATOM     24  C5   11 d         -14.898 203.211 117.533  0.00  0.00     0.000 A 
ATOM     25  C6   11 d         -14.570 203.973 118.662  0.00  0.00     0.001 A 
ATOM     26  C7   11 d         -15.478 204.081 119.727  0.00  0.00     0.015 A 
ENDBRANCH  19  21
ENDBRANCH   1  19
BRANCH   2  27
ATOM     27  C10  11 d         -17.605 206.704 121.327  0.00  0.00     0.178 C 
ATOM     28  O2   11 d         -16.498 206.664 122.027  0.00  0.00    -0.648 OA
ATOM     29  O3   11 d         -17.743 207.624 120.407  0.00  0.00    -0.648 OA
ENDBRANCH   2  27
TORSDOF 3
ENDMDL
MODEL 7
REMARK VINA RESULT:      -6.1      3.100      7.337
REMARK  3 active torsions:
REMARK  status: ('A' for Active; 'I' for Inactive)
REMARK    1  A    between atoms: C1_1  and  C2_2 
REMARK    2  A    between atoms: C1_1  and  C8_9 
REMARK    3  A    between atoms: C9_10  and  C10_11 
ROOT
ATOM      1  C8   11 d         -18.848 204.437 120.975  0.00  0.00     0.079 C 
ATOM      2  C9   11 d         -18.775 205.637 121.950  0.00  0.00     0.103 C 
ATOM      3  C11  11 d         -18.936 205.202 123.425  0.00  0.00     0.056 C 
ATOM      4  C12  11 d         -19.794 203.961 123.674  0.00  0.00    -0.040 C 
ATOM      5  C13  11 d         -20.417 203.297 122.642  0.00  0.00    -0.040 C 
ATOM      6  C14  11 d         -21.249 202.076 122.866  0.00  0.00    -0.029 A 
ATOM      7  C15  11 d         -22.361 202.122 123.732  0.00  0.00     0.012 A 
ATOM      8  C16  11 d         -23.142 200.977 123.950  0.00  0.00     0.001 A 
ATOM      9  C17  11 d         -22.822 199.776 123.302  0.00  0.00     0.000 A 
ATOM     10  C18  11 d         -21.719 199.718 122.438  0.00  0.00     0.001 A 
ATOM     11  C19  11 d         -20.934 200.861 122.221  0.00  0.00     0.012 A 
ATOM     12  C20  11 d         -20.195 203.732 121.200  0.00  0.00     0.053 C 
ATOM     13  C21  11 d         -19.833 203.467 125.084  0.00  0.00    -0.029 A 
ATOM     14  C22  11 d         -19.430 202.150 125.391  0.00  0.00     0.012 A 
ATOM     15  C23  11 d         -19.452 201.687 126.714  0.00  0.00     0.001 A 
ATOM     16  C24  11 d         -19.868 202.539 127.747  0.00  0.00     0.000 A 
ATOM     17  C25  11 d         -20.257 203.854 127.457  0.00  0.00     0.001 A 
ATOM     18  C26  11 d         -20.238 204.319 126.132  0.00  0.00     0.012 A 
ENDROOT
BRANCH   1  19
ATOM     19  C1   11 d         -17.701 203.424 121.043  0.00  0.00     0.164 C 
ATOM     20  O1   11 d         -17.958 202.194 120.942  0.00  0.00    -0.292 OA
BRANCH  19  21
ATOM     21  C2   11 d         -16.284 203.830 121.315  0.00  0.00     0.010 A 
ATOM     22  C3   11 d         -15.536 204.474 120.303  0.00  0.00     0.015 A 
ATOM     23  C4   11 d         -14.217 204.893 120.537  0.00  0.00     0.001 A 
ATOM     24  C5   11 d         -13.624 204.677 121.787  0.00  0.00     0.000 A 
ATOM     25  C6   11 d         -14.349 204.044 122.804  0.00  0.00     0.001 A 
ATOM     26  C7   11 d         -15.669 203.624 122.572  0.00  0.00     0.015 A 
ENDBRANCH  19  21
ENDBRANCH   1  19
BRANCH   2  27
ATOM     27  C10  11 d         -17.603 206.564 121.701  0.00  0.00     0.178 C 
ATOM     28  O2   11 d         -16.705 206.760 122.635  0.00  0.00    -0.648 OA
ATOM     29  O3   11 d         -17.540 207.266 120.599  0.00  0.00    -0.648 OA
ENDBRANCH   2  27
TORSDOF 3
ENDMDL
MODEL 8
REMARK VINA RESULT:      -6.1      8.750     12.770
REMARK  3 active torsions:
REMARK  status: ('A' for Active; 'I' for Inactive)
REMARK    1  A    between atoms: C1_1  and  C2_2 
REMARK    2  A    between atoms: C1_1  and  C8_9 
REMARK    3  A    between atoms: C9_10  and  C10_11 
ROOT
ATOM      1  C8   11 d          -5.792 209.249 115.919  0.00  0.00     0.079 C 
ATOM      2  C9   11 d          -4.389 208.947 115.340  0.00  0.00     0.103 C 
ATOM      3  C11  11 d          -3.343 208.688 116.449  0.00  0.00     0.056 C 
ATOM      4  C12  11 d          -3.573 209.412 117.776  0.00  0.00    -0.040 C 
ATOM      5  C13  11 d          -4.631 210.274 117.954  0.00  0.00    -0.040 C 
ATOM      6  C14  11 d          -4.876 210.979 119.248  0.00  0.00    -0.029 A 
ATOM      7  C15  11 d          -3.884 211.814 119.803  0.00  0.00     0.012 A 
ATOM      8  C16  11 d          -4.109 212.475 121.020  0.00  0.00     0.001 A 
ATOM      9  C17  11 d          -5.327 212.310 121.693  0.00  0.00     0.000 A 
ATOM     10  C18  11 d          -6.321 211.483 121.152  0.00  0.00     0.001 A 
ATOM     11  C19  11 d          -6.098 210.819 119.936  0.00  0.00     0.012 A 
ATOM     12  C20  11 d          -5.663 210.465 116.851  0.00  0.00     0.053 C 
ATOM     13  C21  11 d          -2.638 209.052 118.886  0.00  0.00    -0.029 A 
ATOM     14  C22  11 d          -3.137 208.545 120.104  0.00  0.00     0.012 A 
ATOM     15  C23  11 d          -2.262 208.193 121.142  0.00  0.00     0.001 A 
ATOM     16  C24  11 d          -0.878 208.335 120.970  0.00  0.00     0.000 A 
ATOM     17  C25  11 d          -0.369 208.824 119.759  0.00  0.00     0.001 A 
ATOM     18  C26  11 d          -1.243 209.179 118.720  0.00  0.00     0.012 A 
ENDROOT
BRANCH   1  19
ATOM     19  C1   11 d          -6.501 208.099 116.641  0.00  0.00     0.164 C 
ATOM     20  O1   11 d          -5.917 206.988 116.750  0.00  0.00    -0.292 OA
BRANCH  19  21
ATOM     21  C2   11 d          -7.906 208.213 117.150  0.00  0.00     0.010 A 
ATOM     22  C3   11 d          -8.154 208.133 118.539  0.00  0.00     0.015 A 
ATOM     23  C4   11 d          -9.455 208.266 119.049  0.00  0.00     0.001 A 
ATOM     24  C5   11 d         -10.530 208.484 118.178  0.00  0.00     0.000 A 
ATOM     25  C6   11 d         -10.305 208.570 116.799  0.00  0.00     0.001 A 
ATOM     26  C7   11 d          -9.004 208.438 116.287  0.00  0.00     0.015 A 
ENDBRANCH  19  21
ENDBRANCH   1  19
BRANCH   2  27
ATOM     27  C10  11 d          -4.388 207.913 114.233  0.00  0.00     0.178 C 
ATOM     28  O2   11 d          -3.569 206.891 114.284  0.00  0.00    -0.648 OA
ATOM     29  O3   11 d          -5.118 208.092 113.162  0.00  0.00    -0.648 OA
ENDBRANCH   2  27
TORSDOF 3
ENDMDL
MODEL 9
REMARK VINA RESULT:      -6.1     11.412     14.624
REMARK  3 active torsions:
REMARK  status: ('A' for Active; 'I' for Inactive)
REMARK    1  A    between atoms: C1_1  and  C2_2 
REMARK    2  A    between atoms: C1_1  and  C8_9 
REMARK    3  A    between atoms: C9_10  and  C10_11 
ROOT
ATOM      1  C8   11 d          -5.097 207.950 114.211  0.00  0.00     0.079 C 
ATOM      2  C9   11 d          -6.480 208.478 114.662  0.00  0.00     0.103 C 
ATOM      3  C11  11 d          -6.403 209.250 116.000  0.00  0.00     0.056 C 
ATOM      4  C12  11 d          -5.308 208.809 116.972  0.00  0.00    -0.040 C 
ATOM      5  C13  11 d          -4.466 207.759 116.682  0.00  0.00    -0.040 C 
ATOM      6  C14  11 d          -3.383 207.324 117.615  0.00  0.00    -0.029 A 
ATOM      7  C15  11 d          -3.695 206.931 118.933  0.00  0.00     0.012 A 
ATOM      8  C16  11 d          -2.681 206.526 119.814  0.00  0.00     0.001 A 
ATOM      9  C17  11 d          -1.346 206.507 119.385  0.00  0.00     0.000 A 
ATOM     10  C18  11 d          -1.024 206.895 118.077  0.00  0.00     0.001 A 
ATOM     11  C19  11 d          -2.036 207.303 117.195  0.00  0.00     0.012 A 
ATOM     12  C20  11 d          -4.548 207.056 115.334  0.00  0.00     0.053 C 
ATOM     13  C21  11 d          -5.150 209.646 118.200  0.00  0.00    -0.029 A 
ATOM     14  C22  11 d          -3.915 210.262 118.491  0.00  0.00     0.012 A 
ATOM     15  C23  11 d          -3.767 211.059 119.636  0.00  0.00     0.001 A 
ATOM     16  C24  11 d          -4.855 211.257 120.496  0.00  0.00     0.000 A 
ATOM     17  C25  11 d          -6.092 210.662 120.211  0.00  0.00     0.001 A 
ATOM     18  C26  11 d          -6.242 209.861 119.067  0.00  0.00     0.012 A 
ENDROOT
BRANCH   1  19
ATOM     19  C1   11 d          -4.057 209.001 113.811  0.00  0.00     0.164 C 
ATOM     20  O1   11 d          -4.287 210.217 114.050  0.00  0.00    -0.292 OA
BRANCH  19  21
ATOM     21  C2   11 d          -2.806 208.651 113.064  0.00  0.00     0.010 A 
ATOM     22  C3   11 d          -2.667 209.043 111.713  0.00  0.00     0.015 A 
ATOM     23  C4   11 d          -1.495 208.757 110.996  0.00  0.00     0.001 A 
ATOM     24  C5   11 d          -0.441 208.077 111.617  0.00  0.00     0.000 A 
ATOM     25  C6   11 d          -0.557 207.683 112.956  0.00  0.00     0.001 A 
ATOM     26  C7   11 d          -1.729 207.968 113.676  0.00  0.00     0.015 A 
ENDBRANCH  19  21
ENDBRANCH   1  19
BRANCH   2  27
ATOM     27  C10  11 d          -7.251 209.198 113.575  0.00  0.00     0.178 C 
ATOM     28  O2   11 d          -8.149 210.099 113.887  0.00  0.00    -0.648 OA
ATOM     29  O3   11 d          -7.113 208.844 112.323  0.00  0.00    -0.648 OA
ENDBRANCH   2  27
TORSDOF 3
ENDMDL
MODEL 10
REMARK VINA RESULT:      -6.0      2.876      6.783
REMARK  3 active torsions:
REMARK  status: ('A' for Active; 'I' for Inactive)
REMARK    1  A    between atoms: C1_1  and  C2_2 
REMARK    2  A    between atoms: C1_1  and  C8_9 
REMARK    3  A    between atoms: C9_10  and  C10_11 
ROOT
ATOM      1  C8   11 d         -18.227 205.347 124.723  0.00  0.00     0.079 C 
ATOM      2  C9   11 d         -19.455 205.115 125.636  0.00  0.00     0.103 C 
ATOM      3  C11  11 d         -20.262 203.863 125.223  0.00  0.00     0.056 C 
ATOM      4  C12  11 d         -20.231 203.497 123.739  0.00  0.00    -0.040 C 
ATOM      5  C13  11 d         -19.553 204.267 122.821  0.00  0.00    -0.040 C 
ATOM      6  C14  11 d         -19.502 203.917 121.369  0.00  0.00    -0.029 A 
ATOM      7  C15  11 d         -20.694 203.782 120.628  0.00  0.00     0.012 A 
ATOM      8  C16  11 d         -20.651 203.450 119.265  0.00  0.00     0.001 A 
ATOM      9  C17  11 d         -19.418 203.252 118.630  0.00  0.00     0.000 A 
ATOM     10  C18  11 d         -18.226 203.383 119.356  0.00  0.00     0.001 A 
ATOM     11  C19  11 d         -18.265 203.713 120.720  0.00  0.00     0.012 A 
ATOM     12  C20  11 d         -18.734 205.467 123.276  0.00  0.00     0.053 C 
ATOM     13  C21  11 d         -20.897 202.211 123.369  0.00  0.00    -0.029 A 
ATOM     14  C22  11 d         -20.172 201.193 122.716  0.00  0.00     0.012 A 
ATOM     15  C23  11 d         -20.789 199.979 122.380  0.00  0.00     0.001 A 
ATOM     16  C24  11 d         -22.137 199.767 122.702  0.00  0.00     0.000 A 
ATOM     17  C25  11 d         -22.865 200.766 123.364  0.00  0.00     0.001 A 
ATOM     18  C26  11 d         -22.249 201.982 123.699  0.00  0.00     0.012 A 
ENDROOT
BRANCH   1  19
ATOM     19  C1   11 d         -17.102 204.310 124.807  0.00  0.00     0.164 C 
ATOM     20  O1   11 d         -17.205 203.356 125.624  0.00  0.00    -0.292 OA
BRANCH  19  21
ATOM     21  C2   11 d         -15.835 204.431 124.016  0.00  0.00     0.010 A 
ATOM     22  C3   11 d         -15.499 203.430 123.077  0.00  0.00     0.015 A 
ATOM     23  C4   11 d         -14.335 203.530 122.300  0.00  0.00     0.001 A 
ATOM     24  C5   11 d         -13.488 204.635 122.447  0.00  0.00     0.000 A 
ATOM     25  C6   11 d         -13.804 205.641 123.369  0.00  0.00     0.001 A 
ATOM     26  C7   11 d         -14.969 205.542 124.148  0.00  0.00     0.015 A 
ENDBRANCH  19  21
ENDBRANCH   1  19
BRANCH   2  27
ATOM     27  C10  11 d         -19.147 205.195 127.117  0.00  0.00     0.178 C 
ATOM     28  O2   11 d         -18.375 206.146 127.581  0.00  0.00    -0.648 OA
ATOM     29  O3   11 d         -19.549 204.249 127.926  0.00  0.00    -0.648 OA
ENDBRANCH   2  27
TORSDOF 3
ENDMDL
