REMARK  2 active torsions:
REMARK  status: ('A' for Active; 'I' for Inactive)
REMARK    1  A    between atoms: C6_6  and  O1_7 
REMARK    2  A    between atoms: C16_17  and  N1_18 
REMARK       I    between atoms: N2_23  and  C19_24 
ROOT
ATOM      1  C1   11 d          -3.186   4.694  -2.770  0.00  0.00     0.072 C 
ATOM      2  C2   11 d          -4.182   4.329  -3.810  0.00  0.00    -0.000 A 
ATOM      3  C3   11 d          -3.781   3.479  -4.874  0.00  0.00    -0.046 A 
ATOM      4  C4   11 d          -4.738   3.064  -5.821  0.00  0.00     0.011 A 
ATOM      5  C5   11 d          -6.060   3.525  -5.744  0.00  0.00     0.037 A 
ATOM      6  C6   11 d          -6.456   4.364  -4.693  0.00  0.00     0.069 A 
ATOM      7  C8   11 d          -5.513   4.787  -3.744  0.00  0.00     0.050 A 
ATOM      8  C9   11 d          -2.381   2.893  -4.926  0.00  0.00     0.040 C 
ATOM      9  C10  11 d          -1.689   2.857  -3.552  0.00  0.00     0.018 C 
ATOM     10  C11  11 d          -1.764   4.240  -2.877  0.00  0.00     0.070 C 
ATOM     11  C12  11 d          -1.265   4.422  -1.436  0.00  0.00     0.156 C 
ATOM     12  C13  11 d          -1.044   3.119  -0.684  0.00  0.00    -0.032 A 
ATOM     13  C14  11 d          -2.074   2.504   0.057  0.00  0.00     0.012 A 
ATOM     14  C15  11 d          -1.825   1.338   0.797  0.00  0.00     0.037 A 
ATOM     15  C16  11 d          -0.534   0.760   0.833  0.00  0.00     0.102 A 
ATOM     16  C17  11 d           0.502   1.406   0.120  0.00  0.00     0.037 A 
ATOM     17  C18  11 d           0.253   2.575  -0.614  0.00  0.00     0.012 A 
ATOM     18  N2   11 d          -2.362   5.247  -0.855  0.00  0.00    -0.228 N 
ATOM     19  C19  11 d          -2.311   5.900   0.410  0.00  0.00     0.236 C 
ATOM     20  O4   11 d          -1.249   5.817   1.123  0.00  0.00    -0.272 OA
ATOM     21  C20  11 d          -3.458   6.729   0.903  0.00  0.00     0.119 C 
ATOM     22  N3   11 d          -3.486   5.325  -1.673  0.00  0.00    -0.172 NA
ENDROOT
BRANCH  15  23
ATOM     23  N1   11 d          -0.280  -0.407   1.558  0.00  0.00    -0.116 N 
ATOM     24  O2   11 d          -1.130  -0.950   2.102  0.00  0.00    -0.532 OA
ATOM     25  O3   11 d           0.834  -0.994   1.464  0.00  0.00    -0.532 OA
ENDBRANCH  15  23
BRANCH   6  26
ATOM     26  O1   11 d          -7.778   4.883  -4.661  0.00  0.00    -0.356 OA
ATOM     27  C7   11 d          -8.613   4.022  -3.845  0.00  0.00     0.210 C 
ENDBRANCH   6  26
TORSDOF 2
