REMARK  2 active torsions:
REMARK  status: ('A' for Active; 'I' for Inactive)
REMARK    1  A    between atoms: C1_1  and  C9_10 
REMARK    2  A    between atoms: N2_11  and  C10_12 
ROOT
ATOM      1  C1   11 d          -2.286   4.362  -5.484  0.00  0.00     0.009 A 
ATOM      2  C2   11 d          -2.602   5.197  -6.551  0.00  0.00     0.004 A 
ATOM      3  C3   11 d          -1.615   5.041  -7.508  0.00  0.00     0.043 A 
ATOM      4  C4   11 d          -1.643   5.753  -8.713  0.00  0.00     0.030 A 
ATOM      5  C5   11 d          -2.721   6.633  -8.939  0.00  0.00     0.002 A 
ATOM      6  C6   11 d          -3.742   6.779  -7.973  0.00  0.00     0.001 A 
ATOM      7  C7   11 d          -3.693   6.052  -6.766  0.00  0.00     0.014 A 
ATOM      8  N1   11 d          -0.725   4.129  -7.076  0.00  0.00    -0.364 N 
ATOM      9  C8   11 d          -1.122   3.692  -5.857  0.00  0.00     0.102 A 
ATOM     10  H5   11 d           0.128   3.807  -7.595  0.00  0.00     0.165 HD
ENDROOT
BRANCH   1  11
ATOM     11  C9   11 d          -3.028   4.133  -4.219  0.00  0.00     0.133 C 
ATOM     12  N2   11 d          -3.517   5.047  -3.406  0.00  0.00    -0.234 NA
BRANCH  12  13
ATOM     13  C10  11 d          -3.213   6.449  -3.553  0.00  0.00     0.192 A 
ATOM     14  N3   11 d          -2.136   7.003  -4.164  0.00  0.00    -0.235 NA
ATOM     15  C11  11 d          -2.190   8.359  -4.080  0.00  0.00     0.127 A 
ATOM     16  C12  11 d          -3.319   8.768  -3.383  0.00  0.00     0.072 A 
ATOM     17  S1   11 d          -4.067   7.539  -2.983  0.00  0.00    -0.061 SA
ENDBRANCH  12  13
ENDBRANCH   1  11
TORSDOF 2
