REMARK  4 active torsions:
REMARK  status: ('A' for Active; 'I' for Inactive)
REMARK    1  A    between atoms: C1_1  and  N1_2 
REMARK    2  A    between atoms: C4_7  and  S1_8 
REMARK    3  A    between atoms: S1_8  and  N2_11 
REMARK    4  A    between atoms: N2_11  and  C5_12 
ROOT
ATOM      1  S1   11 d          -2.754 -11.225  -4.948  0.00  0.00     0.241 S 
ATOM      2  O3   11 d          -3.542  -9.925  -5.123  0.00  0.00    -0.206 OA
ATOM      3  O4   11 d          -3.300 -11.916  -3.695  0.00  0.00    -0.206 OA
ENDROOT
BRANCH   1   4
ATOM      4  C4   11 d          -1.016 -10.827  -4.723  0.00  0.00     0.074 A 
ATOM      5  C3   11 d          -0.338 -11.183  -3.547  0.00  0.00     0.027 A 
ATOM      6  C2   11 d           1.020 -10.865  -3.389  0.00  0.00     0.037 A 
ATOM      7  C1   11 d           1.731 -10.182  -4.407  0.00  0.00     0.102 A 
ATOM      8  C12  11 d           1.031  -9.831  -5.586  0.00  0.00     0.037 A 
ATOM      9  C11  11 d          -0.326 -10.150  -5.740  0.00  0.00     0.027 A 
BRANCH   7  10
ATOM     10  N1   11 d           3.084  -9.864  -4.260  0.00  0.00    -0.116 N 
ATOM     11  O1   11 d           3.636 -10.097  -3.284  0.00  0.00    -0.532 OA
ATOM     12  O2   11 d           3.702  -9.226  -5.156  0.00  0.00    -0.532 OA
ENDBRANCH   7  10
ENDBRANCH   1   4
BRANCH   1  13
ATOM     13  N2   11 d          -2.999 -12.263  -6.351  0.00  0.00    -0.211 NA
ATOM     14  H3   11 d          -2.713 -11.708  -7.217  0.00  0.00     0.140 HD
BRANCH  13  15
ATOM     15  C5   11 d          -4.393 -12.784  -6.492  0.00  0.00     0.071 C 
ATOM     16  C6   11 d          -4.357 -14.134  -7.234  0.00  0.00     0.020 C 
ATOM     17  C7   11 d          -4.079 -13.977  -8.736  0.00  0.00     0.002 C 
ATOM     18  C8   11 d          -5.095 -13.037  -9.395  0.00  0.00     0.000 C 
ATOM     19  C9   11 d          -5.138 -11.671  -8.699  0.00  0.00     0.002 C 
ATOM     20  C10  11 d          -5.375 -11.810  -7.186  0.00  0.00     0.020 C 
ENDBRANCH  13  15
ENDBRANCH   1  13
TORSDOF 4
