REMARK  3 active torsions:
REMARK  status: ('A' for Active; 'I' for Inactive)
REMARK    1  A    between atoms: C1_1  and  S1_2 
REMARK    2  A    between atoms: S1_2  and  N1_5 
REMARK    3  A    between atoms: N1_5  and  C2_6 
ROOT
ATOM      1  S1   11 d          -5.672  -1.482  -2.124  0.00  0.00     0.241 S 
ATOM      2  O1   11 d          -7.035  -0.904  -2.514  0.00  0.00    -0.206 OA
ATOM      3  O2   11 d          -4.722  -1.213  -3.293  0.00  0.00    -0.206 OA
ENDROOT
BRANCH   1   4
ATOM      4  C1   11 d          -5.048  -0.653  -0.656  0.00  0.00     0.074 A 
ATOM      5  C7   11 d          -5.804   0.343  -0.011  0.00  0.00     0.026 A 
ATOM      6  C8   11 d          -5.301   0.980   1.134  0.00  0.00     0.020 A 
ATOM      7  C9   11 d          -4.040   0.626   1.640  0.00  0.00     0.011 A 
ATOM      8 Br1   11 d          -3.349   1.502   3.212  0.00  0.00    -0.051 Br
ATOM      9  C10  11 d          -3.282  -0.366   0.998  0.00  0.00     0.020 A 
ATOM     10  C11  11 d          -3.785  -1.004  -0.147  0.00  0.00     0.026 A 
ENDBRANCH   1   4
BRANCH   1  11
ATOM     11  N1   11 d          -5.825  -3.219  -1.873  0.00  0.00    -0.211 NA
ATOM     12  H1   11 d          -4.853  -3.596  -1.636  0.00  0.00     0.140 HD
BRANCH  11  13
ATOM     13  C2   11 d          -6.390  -3.931  -3.059  0.00  0.00     0.071 C 
ATOM     14  C3   11 d          -6.986  -5.268  -2.632  0.00  0.00     0.020 C 
ATOM     15  C4   11 d          -5.801  -6.225  -2.567  0.00  0.00     0.002 C 
ATOM     16  C5   11 d          -4.777  -5.686  -3.566  0.00  0.00     0.002 C 
ATOM     17  C6   11 d          -5.343  -4.367  -4.087  0.00  0.00     0.020 C 
ENDBRANCH  11  13
ENDBRANCH   1  11
TORSDOF 3
