REMARK  0 active torsions:
REMARK  status: ('A' for Active; 'I' for Inactive)
ROOT
ATOM      1  C1   11 d           6.106   5.351  -0.728  0.00  0.00     0.163 C 
ATOM      2  C2   11 d           5.448   4.435   0.261  0.00  0.00     0.051 A 
ATOM      3  C3   11 d           5.376   2.958  -0.034  0.00  0.00     0.069 A 
ATOM      4  N1   11 d           4.794   2.067   0.704  0.00  0.00    -0.066 NA
ATOM      5  C4   11 d           4.180   2.503   1.834  0.00  0.00     0.734 A 
ATOM      6  N2   11 d           3.532   1.770   2.708  0.00  0.00    -0.060 NA
ATOM      7  C5   11 d           3.072   2.635   3.654  0.00  0.00     0.103 A 
ATOM      8  C6   11 d           3.447   3.949   3.374  0.00  0.00     0.086 A 
ATOM      9  N3   11 d           4.205   3.852   2.207  0.00  0.00    -0.151 N 
ATOM     10  C7   11 d           4.889   4.825   1.435  0.00  0.00     0.133 A 
ATOM     11  C8   11 d           3.031   5.009   4.199  0.00  0.00     0.033 A 
ATOM     12  C9   11 d           2.259   4.705   5.327  0.00  0.00     0.002 A 
ATOM     13  C10  11 d           1.901   3.394   5.625  0.00  0.00     0.002 A 
ATOM     14  C11  11 d           2.300   2.348   4.791  0.00  0.00     0.034 A 
ATOM     15  C12  11 d           6.094   2.434  -1.266  0.00  0.00     0.061 C 
ATOM     16  C13  11 d           6.218   3.478  -2.358  0.00  0.00     0.014 C 
ATOM     17  C14  11 d           6.920   4.714  -1.829  0.00  0.00     0.084 C 
ATOM     18  O1   11 d           5.977   6.552  -0.628  0.00  0.00    -0.292 OA
ENDROOT
TORSDOF 0
