REMARK  4 active torsions:
REMARK  status: ('A' for Active; 'I' for Inactive)
REMARK       I    between atoms: C1_1  and  N1_3 
REMARK    1  A    between atoms: C1_1  and  C12_15 
REMARK    2  A    between atoms: N1_3  and  N2_4 
REMARK    3  A    between atoms: N2_4  and  C2_5 
REMARK    4  A    between atoms: C12_15  and  C13_16 
ROOT
ATOM      1  N2   11 d          -3.863   3.597   1.436  0.00  0.00    -0.298 N 
ATOM      2  H2   11 d          -3.439   3.862   2.300  0.00  0.00     0.187 HD
ENDROOT
BRANCH   1   3
ATOM      3  N1   11 d          -3.249   2.640   0.703  0.00  0.00    -0.269 N 
ATOM      4  C1   11 d          -2.031   2.034   1.154  0.00  0.00     0.240 C 
ATOM      5  O1   11 d          -1.516   2.401   2.267  0.00  0.00    -0.272 OA
ATOM      6  H1   11 d          -3.663   2.318  -0.231  0.00  0.00     0.190 HD
BRANCH   4   7
ATOM      7  C12  11 d          -1.392   0.967   0.285  0.00  0.00     0.143 C 
BRANCH   7   8
ATOM      8  C13  11 d          -0.098   0.246   0.644  0.00  0.00    -0.049 A 
ATOM      9  C14  11 d           0.354  -0.722  -0.283  0.00  0.00     0.007 A 
ATOM     10  C15  11 d           1.534  -1.446  -0.058  0.00  0.00     0.001 A 
ATOM     11  C16  11 d           2.287  -1.218   1.100  0.00  0.00     0.000 A 
ATOM     12  C17  11 d           1.859  -0.265   2.031  0.00  0.00     0.001 A 
ATOM     13  C18  11 d           0.678   0.462   1.810  0.00  0.00     0.007 A 
ENDBRANCH   7   8
ENDBRANCH   4   7
ENDBRANCH   1   3
BRANCH   1  14
ATOM     14  C2   11 d          -5.051   4.251   1.085  0.00  0.00     0.049 A 
ATOM     15  C3   11 d          -5.535   5.245   1.966  0.00  0.00     0.043 A 
ATOM     16  C4   11 d          -6.719   5.955   1.691  0.00  0.00    -0.024 A 
ATOM     17  C5   11 d          -7.447   5.672   0.508  0.00  0.00    -0.026 A 
ATOM     18  C11  11 d          -7.188   6.944   2.579  0.00  0.00     0.012 A 
ATOM     19  C6   11 d          -6.976   4.685  -0.373  0.00  0.00     0.014 A 
ATOM     20  C8   11 d          -8.632   6.383   0.232  0.00  0.00     0.012 A 
ATOM     21  C7   11 d          -5.795   3.982  -0.089  0.00  0.00     0.032 A 
ATOM     22  C9   11 d          -9.088   7.366   1.123  0.00  0.00     0.001 A 
ATOM     23  C10  11 d          -8.369   7.645   2.293  0.00  0.00     0.001 A 
ENDBRANCH   1  14
TORSDOF 4
