REMARK  3 active torsions:
REMARK  status: ('A' for Active; 'I' for Inactive)
REMARK    1  A    between atoms: C1_1  and  N3_15 
REMARK    2  A    between atoms: C12_16  and  C13_17 
REMARK    3  A    between atoms: C14_18  and  O2_24 
ROOT
ATOM      1  C1   11 d          -1.973   2.943   0.124  0.00  0.00     0.150 A 
ATOM      2  C2   11 d          -3.186   3.060   0.771  0.00  0.00     0.297 A 
ATOM      3  N1   11 d          -2.986   3.032   2.107  0.00  0.00    -0.217 N 
ATOM      4  C3   11 d          -4.036   3.136   3.092  0.00  0.00     0.060 A 
ATOM      5  C4   11 d          -3.971   4.113   4.104  0.00  0.00     0.031 A 
ATOM      6  C5   11 d          -4.995   4.215   5.058  0.00  0.00     0.002 A 
ATOM      7  C6   11 d          -6.093   3.345   5.006  0.00  0.00     0.000 A 
ATOM      8  C7   11 d          -6.169   2.372   3.998  0.00  0.00     0.002 A 
ATOM      9  C8   11 d          -5.146   2.269   3.042  0.00  0.00     0.031 A 
ATOM     10  N2   11 d          -1.696   2.919   2.337  0.00  0.00    -0.289 N 
ATOM     11  C9   11 d          -1.028   2.832   1.149  0.00  0.00     0.059 A 
ATOM     12  C10  11 d           0.464   2.922   0.986  0.00  0.00     0.072 C 
ATOM     13  C11  11 d          -1.076   2.752   3.658  0.00  0.00     0.178 C 
ATOM     14  O1   11 d          -4.302   3.197   0.204  0.00  0.00    -0.264 OA
ENDROOT
BRANCH   1  15
ATOM     15  N3   11 d          -1.790   2.991  -1.313  0.00  0.00    -0.252 NA
ATOM     16  C12  11 d          -0.888   2.219  -1.868  0.00  0.00     0.131 C 
BRANCH  16  17
ATOM     17  C13  11 d          -0.626   2.246  -3.334  0.00  0.00     0.016 A 
ATOM     18  C14  11 d          -1.370   3.036  -4.250  0.00  0.00     0.077 A 
ATOM     19  C15  11 d          -1.076   2.985  -5.622  0.00  0.00     0.039 A 
ATOM     20  C16  11 d          -0.026   2.188  -6.095  0.00  0.00     0.026 A 
ATOM     21  C17  11 d           0.727   1.420  -5.199  0.00  0.00     0.035 A 
ATOM     22 Cl1   11 d           2.060   0.405  -5.799  0.00  0.00    -0.084 Cl
ATOM     23  C18  11 d           0.427   1.446  -3.828  0.00  0.00     0.039 A 
BRANCH  18  24
ATOM     24  O2   11 d          -2.493   3.796  -3.848  0.00  0.00    -0.360 OA
ATOM     25  H16  11 d          -2.108   4.678  -3.467  0.00  0.00     0.217 HD
ENDBRANCH  18  24
ENDBRANCH  16  17
ENDBRANCH   1  15
TORSDOF 3
