REMARK  3 active torsions:
REMARK  status: ('A' for Active; 'I' for Inactive)
REMARK    1  A    between atoms: C1_1  and  C2_2 
REMARK       I    between atoms: C1_1  and  N1_10 
REMARK    2  A    between atoms: N1_10  and  N2_11 
REMARK       I    between atoms: N2_11  and  C9_12 
REMARK    3  A    between atoms: C9_12  and  C10_13 
ROOT
ATOM      1  C1   11 d           2.803  -9.821  -4.323  0.00  0.00     0.270 C 
ATOM      2  O1   11 d           3.550  -9.556  -5.332  0.00  0.00    -0.266 OA
ATOM      3  N1   11 d           3.364  -9.733  -3.013  0.00  0.00    -0.263 N 
ATOM      4  H8   11 d           2.794  -9.932  -2.125  0.00  0.00     0.190 HD
ENDROOT
BRANCH   3   5
ATOM      5  N2   11 d           4.723  -9.376  -2.859  0.00  0.00    -0.263 N 
ATOM      6  C9   11 d           5.581 -10.198  -2.069  0.00  0.00     0.270 C 
ATOM      7  O2   11 d           5.091 -11.243  -1.506  0.00  0.00    -0.266 OA
ATOM      8  H9   11 d           5.068  -8.485  -3.349  0.00  0.00     0.190 HD
BRANCH   6   9
ATOM      9  C10  11 d           7.027  -9.880  -1.878  0.00  0.00     0.033 A 
ATOM     10  C11  11 d           7.707 -10.379  -0.746  0.00  0.00     0.017 A 
ATOM     11  C12  11 d           9.065 -10.089  -0.540  0.00  0.00     0.001 A 
ATOM     12  C13  11 d           9.764  -9.305  -1.467  0.00  0.00     0.000 A 
ATOM     13  C14  11 d           9.106  -8.812  -2.602  0.00  0.00     0.001 A 
ATOM     14  C15  11 d           7.748  -9.097  -2.808  0.00  0.00     0.017 A 
ENDBRANCH   6   9
ENDBRANCH   3   5
BRANCH   1  15
ATOM     15  C2   11 d           1.377 -10.211  -4.555  0.00  0.00     0.034 A 
ATOM     16  C3   11 d           0.750  -9.871  -5.775  0.00  0.00     0.024 A 
ATOM     17  C4   11 d          -0.587 -10.233  -6.033  0.00  0.00    -0.061 A 
ATOM     18  C5   11 d          -1.323 -10.895  -5.032  0.00  0.00     0.007 A 
ATOM     19  C8   11 d          -1.272  -9.766  -7.287  0.00  0.00     0.048 C 
ATOM     20  C6   11 d          -0.711 -11.250  -3.824  0.00  0.00     0.002 A 
ATOM     21  C7   11 d           0.630 -10.918  -3.588  0.00  0.00     0.017 A 
ENDBRANCH   1  15
TORSDOF 3
