REMARK  4 active torsions:
REMARK  status: ('A' for Active; 'I' for Inactive)
REMARK    1  A    between atoms: C1_1  and  P1_2 
REMARK    2  A    between atoms: P1_2  and  O2_4 
REMARK    3  A    between atoms: P1_2  and  C2_5 
REMARK    4  A    between atoms: C2_5  and  C3_6 
ROOT
ATOM      1  P1   11 d           3.333  -8.739  -5.917  0.00  0.00     0.136 P 
ATOM      2  O1   11 d           4.672  -8.330  -5.601  0.00  0.00    -0.670 OA
ENDROOT
BRANCH   1   3
ATOM      3  C1   11 d           2.417  -7.379  -6.168  0.00  0.00     0.022 A 
ATOM      4  C9   11 d           2.299  -6.437  -5.122  0.00  0.00     0.017 A 
ATOM      5  C10  11 d           1.539  -5.270  -5.292  0.00  0.00     0.001 A 
ATOM      6  C11  11 d           0.886  -5.028  -6.508  0.00  0.00     0.000 A 
ATOM      7  C12  11 d           0.992  -5.953  -7.554  0.00  0.00     0.001 A 
ATOM      8  C13  11 d           1.752  -7.122  -7.390  0.00  0.00     0.017 A 
ENDBRANCH   1   3
BRANCH   1   9
ATOM      9  O2   11 d           2.712  -9.550  -4.671  0.00  0.00    -0.346 OA
ATOM     10  H1   11 d           3.199  -9.182  -3.836  0.00  0.00     0.218 HD
ENDBRANCH   1   9
BRANCH   1  11
ATOM     11  C2   11 d           3.376  -9.761  -7.252  0.00  0.00     0.137 C 
BRANCH  11  12
ATOM     12  C3   11 d           4.155 -11.065  -7.139  0.00  0.00    -0.049 A 
ATOM     13  C4   11 d           4.056 -11.957  -8.230  0.00  0.00     0.007 A 
ATOM     14  C5   11 d           4.726 -13.190  -8.218  0.00  0.00     0.001 A 
ATOM     15  C6   11 d           5.500 -13.557  -7.111  0.00  0.00     0.000 A 
ATOM     16  C7   11 d           5.604 -12.693  -6.015  0.00  0.00     0.001 A 
ATOM     17  C8   11 d           4.936 -11.458  -6.023  0.00  0.00     0.007 A 
ENDBRANCH  11  12
ENDBRANCH   1  11
TORSDOF 4
