REMARK  6 active torsions:
REMARK  status: ('A' for Active; 'I' for Inactive)
REMARK    1  A    between atoms: C1_1  and  O6_33 
REMARK    2  A    between atoms: C2_2  and  S1_3 
REMARK    3  A    between atoms: S1_3  and  N1_6 
REMARK    4  A    between atoms: N1_6  and  C3_7 
REMARK    5  A    between atoms: C11_16  and  S2_17 
REMARK    6  A    between atoms: S2_17  and  N2_18 
ROOT
ATOM      1  C3   11 d           2.861 -13.666  -1.138  0.00  0.00     0.045 A 
ATOM      2  C4   11 d           3.252 -15.020  -1.293  0.00  0.00     0.068 A 
ATOM      3  C5   11 d           3.991 -15.629  -0.279  0.00  0.00     0.089 A 
ATOM      4  C6   11 d           4.330 -14.939   0.873  0.00  0.00     0.011 A 
ATOM      5  C7   11 d           5.057 -15.839   1.622  0.00  0.00     0.012 A 
ATOM      6  C8   11 d           5.101 -16.989   0.847  0.00  0.00     0.087 A 
ATOM      7  O3   11 d           4.452 -16.858  -0.288  0.00  0.00    -0.309 OA
ATOM      8  C9   11 d           5.789 -18.124   1.278  0.00  0.00     0.040 A 
ATOM      9  C10  11 d           6.441 -18.070   2.527  0.00  0.00     0.027 A 
ATOM     10  C11  11 d           6.386 -16.897   3.323  0.00  0.00     0.075 A 
ATOM     11  C16  11 d           5.681 -15.760   2.871  0.00  0.00     0.040 A 
ATOM     12  C17  11 d           3.959 -13.609   1.077  0.00  0.00     0.017 A 
ATOM     13  C18  11 d           3.225 -12.972   0.056  0.00  0.00     0.031 A 
ENDROOT
BRANCH   1  14
ATOM     14  N1   11 d           2.158 -13.070  -2.181  0.00  0.00    -0.280 N 
ATOM     15  H1   11 d           1.783 -13.645  -2.901  0.00  0.00     0.179 HD
BRANCH  14  16
ATOM     16  S1   11 d           1.895 -11.412  -2.334  0.00  0.00     0.266 S 
ATOM     17  O1   11 d           1.094 -10.903  -1.133  0.00  0.00    -0.200 OA
ATOM     18  O2   11 d           3.247 -10.696  -2.308  0.00  0.00    -0.200 OA
BRANCH  16  19
ATOM     19  C2   11 d           0.975 -11.032  -3.837  0.00  0.00     0.116 A 
ATOM     20  C1   11 d           1.503 -10.258  -4.899  0.00  0.00     0.091 A 
ATOM     21  C22  11 d           0.729 -10.054  -6.055  0.00  0.00     0.041 A 
ATOM     22  C21  11 d          -0.580 -10.551  -6.133  0.00  0.00     0.045 A 
ATOM     23  C20  11 d          -1.111 -11.291  -5.070  0.00  0.00     0.118 A 
ATOM     24  C19  11 d          -0.333 -11.541  -3.933  0.00  0.00     0.070 A 
ATOM     25  F1   11 d          -2.384 -11.776  -5.145  0.00  0.00    -0.206 F 
BRANCH  20  26
ATOM     26  O6   11 d           2.853  -9.812  -4.907  0.00  0.00    -0.354 OA
ATOM     27  C23  11 d           2.920  -8.437  -4.448  0.00  0.00     0.210 C 
ENDBRANCH  20  26
ENDBRANCH  16  19
ENDBRANCH  14  16
ENDBRANCH   1  14
BRANCH  10  28
ATOM     28  S2   11 d           7.208 -16.848   4.919  0.00  0.00     0.243 S 
ATOM     29  O4   11 d           8.238 -15.715   4.921  0.00  0.00    -0.206 OA
ATOM     30  O5   11 d           7.979 -18.149   5.159  0.00  0.00    -0.206 OA
BRANCH  28  31
ATOM     31  N2   11 d           6.063 -16.596   6.240  0.00  0.00    -0.206 NA
ATOM     32  C12  11 d           6.727 -16.596   7.572  0.00  0.00     0.107 C 
ATOM     33  C13  11 d           6.228 -17.832   8.302  0.00  0.00     0.017 C 
ATOM     34  C14  11 d           4.832 -18.008   7.743  0.00  0.00     0.017 C 
ATOM     35  C15  11 d           5.025 -17.663   6.276  0.00  0.00     0.107 C 
ENDBRANCH  28  31
ENDBRANCH  10  28
TORSDOF 6
