REMARK  5 active torsions:
REMARK  status: ('A' for Active; 'I' for Inactive)
REMARK    1  A    between atoms: C10_14  and  N3_15 
REMARK    2  A    between atoms: N3_15  and  C11_16 
REMARK    3  A    between atoms: C14_19  and  S2_20 
REMARK    4  A    between atoms: S2_20  and  N4_23 
REMARK    5  A    between atoms: N4_23  and  C15_24 
ROOT
ATOM      1  C11  11 d          -2.300  -2.536  -1.247  0.00  0.00     0.032 A 
ATOM      2  C12  11 d          -3.459  -2.053  -1.890  0.00  0.00     0.031 A 
ATOM      3  C13  11 d          -3.360  -1.151  -2.959  0.00  0.00     0.027 A 
ATOM      4  C14  11 d          -2.100  -0.738  -3.419  0.00  0.00     0.080 A 
ATOM      5  C20  11 d          -0.940  -1.292  -2.855  0.00  0.00     0.027 A 
ATOM      6  C21  11 d          -1.038  -2.189  -1.781  0.00  0.00     0.031 A 
ENDROOT
BRANCH   1   7
ATOM      7  N3   11 d          -2.444  -3.288  -0.082  0.00  0.00    -0.365 N 
ATOM      8  H6   11 d          -3.339  -3.671   0.131  0.00  0.00     0.165 HD
BRANCH   7   9
ATOM      9  C10  11 d          -1.428  -3.565   0.820  0.00  0.00     0.106 C 
ATOM     10  C1   11 d          -0.561  -2.688   1.389  0.00  0.00     0.061 A 
ATOM     11  C2   11 d          -0.470  -1.196   1.397  0.00  0.00     0.027 A 
ATOM     12  C9   11 d           0.658  -3.125   2.104  0.00  0.00     0.258 A 
ATOM     13  C3   11 d          -1.332  -0.131   1.066  0.00  0.00     0.048 A 
ATOM     14  C8   11 d           0.778  -0.857   1.942  0.00  0.00     0.048 A 
ATOM     15  C4   11 d          -0.907   1.194   1.149  0.00  0.00     0.075 A 
ATOM     16  S1   11 d          -2.760  -0.108   0.634  0.00  0.00    -0.080 SA
ATOM     17  N1   11 d          -1.886   2.061   0.780  0.00  0.00    -0.253 NA
ATOM     18  C6   11 d           0.378   1.518   1.610  0.00  0.00     0.035 A 
ATOM     19  C5   11 d          -3.008   1.364   0.467  0.00  0.00     0.167 A 
ATOM     20  C7   11 d           1.225   0.476   2.039  0.00  0.00     0.033 A 
ATOM     21  N2   11 d           1.474  -2.029   2.418  0.00  0.00    -0.322 N 
ATOM     22  H4   11 d           2.424  -2.045   2.917  0.00  0.00     0.169 HD
ATOM     23  O1   11 d           0.965  -4.333   2.397  0.00  0.00    -0.267 OA
ENDBRANCH   7   9
ENDBRANCH   1   7
BRANCH   4  24
ATOM     24  S2   11 d          -1.953   0.540  -4.675  0.00  0.00     0.264 S 
ATOM     25  O2   11 d          -1.171   1.713  -4.080  0.00  0.00    -0.200 OA
ATOM     26  O3   11 d          -3.342   1.071  -5.041  0.00  0.00    -0.200 OA
BRANCH  24  27
ATOM     27  N4   11 d          -1.182   0.010  -6.077  0.00  0.00    -0.264 N 
ATOM     28  H9   11 d          -0.884  -0.937  -6.106  0.00  0.00     0.180 HD
BRANCH  27  29
ATOM     29  C15  11 d          -0.944   0.810  -7.185  0.00  0.00     0.136 A 
ATOM     30  N5   11 d          -0.410   0.206  -8.291  0.00  0.00    -0.243 NA
ATOM     31  C16  11 d          -0.139   0.888  -9.442  0.00  0.00     0.119 A 
ATOM     32  C17  11 d          -0.403   2.261  -9.520  0.00  0.00     0.019 A 
ATOM     33  C18  11 d          -0.946   2.915  -8.408  0.00  0.00     0.005 A 
ATOM     34  C19  11 d          -1.222   2.195  -7.238  0.00  0.00     0.051 A 
ENDBRANCH  27  29
ENDBRANCH  24  27
ENDBRANCH   4  24
TORSDOF 5
