REMARK  2 active torsions:
REMARK  status: ('A' for Active; 'I' for Inactive)
REMARK    1  A    between atoms: C1_1  and  C2_2 
REMARK       I    between atoms: C1_1  and  N2_9 
REMARK    2  A    between atoms: N2_9  and  C7_10 
ROOT
ATOM      1  C7   11 d           0.095  -4.495  -3.357  0.00  0.00     0.093 C 
ATOM      2  C8   11 d           0.249  -5.459  -2.144  0.00  0.00     0.009 C 
ATOM      3  C9   11 d          -0.443  -4.893  -0.875  0.00  0.00     0.011 C 
ATOM      4  C10  11 d           0.160  -3.513  -0.525  0.00  0.00    -0.013 C 
ATOM      5  C11  11 d          -0.034  -2.547  -1.719  0.00  0.00     0.011 C 
ATOM      6  C12  11 d           0.684  -3.110  -2.972  0.00  0.00     0.009 C 
ATOM      7  C13  11 d           2.193  -3.273  -2.663  0.00  0.00     0.011 C 
ATOM      8  C14  11 d           2.381  -4.253  -1.480  0.00  0.00    -0.013 C 
ATOM      9  C15  11 d           1.761  -5.628  -1.837  0.00  0.00     0.011 C 
ATOM     10  C16  11 d           1.670  -3.678  -0.231  0.00  0.00     0.009 C 
ENDROOT
BRANCH   1  11
ATOM     11  N2   11 d          -1.317  -4.378  -3.851  0.00  0.00    -0.351 N 
ATOM     12  C1   11 d          -1.603  -3.953  -5.188  0.00  0.00     0.253 C 
ATOM     13  O1   11 d          -0.625  -3.671  -5.969  0.00  0.00    -0.268 OA
ATOM     14  H5   11 d          -2.120  -4.613  -3.185  0.00  0.00     0.163 HD
BRANCH  12  15
ATOM     15  C2   11 d          -2.998  -3.824  -5.711  0.00  0.00     0.049 A 
ATOM     16  C3   11 d          -3.236  -3.064  -6.877  0.00  0.00     0.133 A 
ATOM     17  N1   11 d          -4.500  -2.919  -7.370  0.00  0.00    -0.272 NA
ATOM     18  C4   11 d          -5.577  -3.499  -6.771  0.00  0.00     0.116 A 
ATOM     19  C5   11 d          -5.400  -4.274  -5.620  0.00  0.00     0.020 A 
ATOM     20  C6   11 d          -4.111  -4.438  -5.093  0.00  0.00     0.020 A 
ENDBRANCH  12  15
ENDBRANCH   1  11
TORSDOF 2
