REMARK  4 active torsions:
REMARK  status: ('A' for Active; 'I' for Inactive)
REMARK    1  A    between atoms: C1_1  and  C21_29 
REMARK    2  A    between atoms: C10_14  and  C11_15 
REMARK    3  A    between atoms: C11_15  and  O2_17 
REMARK    4  A    between atoms: O2_17  and  C12_18 
ROOT
ATOM      1  C1   11 d          -0.236  -0.596  -0.841  0.00  0.00     0.073 A 
ATOM      2  C2   11 d           1.042  -0.824  -0.468  0.00  0.00     0.033 A 
ATOM      3  N1   11 d           1.489   0.044   0.526  0.00  0.00    -0.302 N 
ATOM      4  C3   11 d           0.532   0.970   1.021  0.00  0.00     0.247 A 
ATOM      5  N2   11 d           0.271   0.886   2.426  0.00  0.00    -0.218 N 
ATOM      6  C4   11 d          -0.390  -0.172   3.081  0.00  0.00     0.057 A 
ATOM      7  C5   11 d          -1.125   0.102   4.262  0.00  0.00     0.033 A 
ATOM      8  C6   11 d          -1.827  -0.908   4.936  0.00  0.00     0.026 A 
ATOM      9  C7   11 d          -1.818  -2.217   4.443  0.00  0.00     0.034 A 
ATOM     10 Cl1   11 d          -2.716  -3.498   5.292  0.00  0.00    -0.084 Cl
ATOM     11  C8   11 d          -1.098  -2.516   3.280  0.00  0.00     0.026 A 
ATOM     12  C9   11 d          -0.390  -1.507   2.610  0.00  0.00     0.033 A 
ATOM     13  N3   11 d           0.696   1.900   3.163  0.00  0.00    -0.155 NA
ATOM     14  C10  11 d           1.234   2.849   2.459  0.00  0.00     0.193 C 
ATOM     15  S1   11 d           1.125   2.671   0.683  0.00  0.00    -0.034 SA
ATOM     16  S2   11 d          -1.006   0.773   0.047  0.00  0.00    -0.056 SA
ATOM     17  C14  11 d           2.793   0.045   1.022  0.00  0.00     0.038 A 
ATOM     18  C15  11 d           3.102  -0.486   2.290  0.00  0.00     0.030 A 
ATOM     19  C16  11 d           4.405  -0.390   2.801  0.00  0.00     0.002 A 
ATOM     20  C17  11 d           5.413   0.229   2.047  0.00  0.00     0.000 A 
ATOM     21  C18  11 d           5.119   0.748   0.778  0.00  0.00     0.002 A 
ATOM     22  C19  11 d           3.815   0.658   0.269  0.00  0.00     0.030 A 
ATOM     23  C20  11 d           1.945  -1.838  -1.143  0.00  0.00     0.070 C 
ENDROOT
BRANCH  14  24
ATOM     24  C11  11 d           1.915   3.991   3.109  0.00  0.00     0.320 C 
ATOM     25  O1   11 d           2.281   4.978   2.416  0.00  0.00    -0.257 OA
BRANCH  24  26
ATOM     26  O2   11 d           2.130   3.956   4.526  0.00  0.00    -0.316 OA
BRANCH  26  27
ATOM     27  C12  11 d           2.471   5.235   5.113  0.00  0.00     0.175 C 
ATOM     28  C13  11 d           2.649   5.042   6.610  0.00  0.00     0.034 C 
ENDBRANCH  26  27
ENDBRANCH  24  26
ENDBRANCH  14  24
BRANCH   1  29
ATOM     29  C21  11 d          -1.047  -1.334  -1.856  0.00  0.00     0.164 C 
ATOM     30  O3   11 d          -2.017  -0.741  -2.391  0.00  0.00    -0.292 OA
ATOM     31  C22  11 d          -0.906  -2.808  -2.106  0.00  0.00     0.097 C 
ENDBRANCH   1  29
TORSDOF 4
