REMARK  4 active torsions:
REMARK  status: ('A' for Active; 'I' for Inactive)
REMARK    1  A    between atoms: C1_1  and  C7_9 
REMARK    2  A    between atoms: C2_2  and  O1_8 
REMARK    3  A    between atoms: N1_10  and  C8_11 
REMARK    4  A    between atoms: C8_11  and  C9_12 
ROOT
ATOM      1  C7   11 d           4.168  -8.698  -6.545  0.00  0.00     0.125 C 
ATOM      2  N1   11 d           4.008  -9.783  -5.803  0.00  0.00    -0.291 NA
ENDROOT
BRANCH   1   3
ATOM      3  C1   11 d           3.739  -7.240  -6.443  0.00  0.00     0.015 A 
ATOM      4  C2   11 d           2.796  -6.597  -5.580  0.00  0.00     0.077 A 
ATOM      5  C3   11 d           2.618  -5.202  -5.631  0.00  0.00     0.039 A 
ATOM      6  C4   11 d           3.313  -4.419  -6.554  0.00  0.00     0.022 A 
ATOM      7  C5   11 d           4.210  -5.024  -7.433  0.00  0.00     0.011 A 
ATOM      8 Br1   11 d           5.172  -3.951  -8.714  0.00  0.00    -0.051 Br
ATOM      9  C6   11 d           4.420  -6.408  -7.375  0.00  0.00     0.034 A 
BRANCH   4  10
ATOM     10  O1   11 d           2.044  -7.259  -4.592  0.00  0.00    -0.360 OA
ATOM     11  H4   11 d           1.065  -7.251  -4.931  0.00  0.00     0.217 HD
ENDBRANCH   4  10
ENDBRANCH   1   3
BRANCH   2  12
ATOM     12  C8   11 d           3.244 -10.022  -4.566  0.00  0.00     0.136 C 
ATOM     13  C15  11 d           3.831  -9.163  -3.425  0.00  0.00     0.039 C 
BRANCH  12  14
ATOM     14  C9   11 d           1.725 -10.008  -4.733  0.00  0.00    -0.034 A 
ATOM     15  C10  11 d           0.911 -10.336  -3.625  0.00  0.00     0.009 A 
ATOM     16  C11  11 d          -0.487 -10.343  -3.733  0.00  0.00     0.001 A 
ATOM     17  C12  11 d          -1.098 -10.041  -4.956  0.00  0.00     0.000 A 
ATOM     18  C13  11 d          -0.311  -9.741  -6.074  0.00  0.00     0.001 A 
ATOM     19  C14  11 d           1.089  -9.731  -5.968  0.00  0.00     0.009 A 
ENDBRANCH  12  14
ENDBRANCH   2  12
TORSDOF 4
