REMARK  4 active torsions:
REMARK  status: ('A' for Active; 'I' for Inactive)
REMARK    1  A    between atoms: C1_1  and  S1_9 
REMARK    2  A    between atoms: S1_9  and  N1_12 
REMARK    3  A    between atoms: N1_12  and  C9_13 
REMARK    4  A    between atoms: C9_13  and  C10_14 
ROOT
ATOM      1  N1   11 d           0.858  -3.852  -7.263  0.00  0.00    -0.211 NA
ATOM      2  H10  11 d           1.626  -4.584  -7.124  0.00  0.00     0.140 HD
ENDROOT
BRANCH   1   3
ATOM      3  S1   11 d          -0.545  -4.313  -6.298  0.00  0.00     0.242 S 
ATOM      4  O1   11 d          -1.602  -3.212  -6.399  0.00  0.00    -0.206 OA
ATOM      5  O2   11 d          -0.137  -4.390  -4.825  0.00  0.00    -0.206 OA
BRANCH   3   6
ATOM      6  C1   11 d          -1.194  -5.929  -6.798  0.00  0.00     0.080 A 
ATOM      7  C2   11 d          -2.512  -6.168  -7.275  0.00  0.00    -0.039 A 
ATOM      8  C3   11 d          -2.890  -7.484  -7.620  0.00  0.00     0.015 A 
ATOM      9  C8   11 d          -3.528  -5.067  -7.439  0.00  0.00     0.050 C 
ATOM     10  C4   11 d          -1.980  -8.553  -7.526  0.00  0.00    -0.061 A 
ATOM     11  C5   11 d          -0.693  -8.310  -7.020  0.00  0.00     0.008 A 
ATOM     12  C7   11 d          -2.434  -9.961  -7.795  0.00  0.00     0.048 C 
ATOM     13  C6   11 d          -0.302  -7.011  -6.675  0.00  0.00     0.026 A 
ENDBRANCH   3   6
ENDBRANCH   1   3
BRANCH   1  14
ATOM     14  C9   11 d           1.374  -2.476  -6.981  0.00  0.00     0.072 C 
ATOM     15  C20  11 d           2.409  -2.501  -5.840  0.00  0.00     0.027 C 
BRANCH  14  16
ATOM     16  C10  11 d           1.951  -1.869  -8.297  0.00  0.00     0.012 C 
ATOM     17  C11  11 d           2.459  -0.392  -8.186  0.00  0.00    -0.008 C 
ATOM     18  C12  11 d           1.277   0.596  -8.002  0.00  0.00     0.010 C 
ATOM     19  C18  11 d           3.220  -0.012  -9.482  0.00  0.00     0.010 C 
ATOM     20  C13  11 d           0.316   0.490  -9.210  0.00  0.00    -0.013 C 
ATOM     21  C14  11 d          -0.217  -0.958  -9.330  0.00  0.00     0.010 C 
ATOM     22  C19  11 d           1.082   0.861 -10.503  0.00  0.00     0.009 C 
ATOM     23  C15  11 d           0.970  -1.938  -9.514  0.00  0.00    -0.008 C 
ATOM     24  C16  11 d           1.732  -1.559 -10.811  0.00  0.00     0.010 C 
ATOM     25  C17  11 d           2.269  -0.113 -10.698  0.00  0.00    -0.013 C 
ENDBRANCH  14  16
ENDBRANCH   1  14
TORSDOF 4
