REMARK  7 active torsions:
REMARK  status: ('A' for Active; 'I' for Inactive)
REMARK    1  A    between atoms: C1_1  and  O2_3 
REMARK    2  A    between atoms: C1_1  and  C12_14 
REMARK    3  A    between atoms: O2_3  and  C2_4 
REMARK    4  A    between atoms: C5_7  and  C6_8 
REMARK    5  A    between atoms: C12_14  and  C13_15 
REMARK    6  A    between atoms: C13_15  and  C14_16 
REMARK       I    between atoms: C14_16  and  N1_18 
REMARK    7  A    between atoms: N1_18  and  C15_19 
ROOT
ATOM      1  C1   11 d          -3.619   3.603 -10.161  0.00  0.00     0.259 C 
ATOM      2  O1   11 d          -4.547   3.676 -11.008  0.00  0.00    -0.265 OA
ENDROOT
BRANCH   1   3
ATOM      3  O2   11 d          -3.621   4.447  -9.014  0.00  0.00    -0.316 OA
BRANCH   3   4
ATOM      4  C2   11 d          -4.883   4.449  -8.286  0.00  0.00     0.132 C 
ATOM      5  C3   11 d          -4.804   5.535  -7.205  0.00  0.00     0.033 C 
ATOM      6  C4   11 d          -3.764   5.200  -6.122  0.00  0.00     0.008 C 
ATOM      7  C5   11 d          -4.011   3.821  -5.446  0.00  0.00    -0.007 C 
ATOM      8  C10  11 d          -4.153   2.731  -6.545  0.00  0.00     0.008 C 
ATOM      9  C11  11 d          -5.191   3.096  -7.615  0.00  0.00     0.033 C 
BRANCH   7  10
ATOM     10  C6   11 d          -2.991   3.455  -4.296  0.00  0.00    -0.048 C 
ATOM     11  C7   11 d          -3.448   2.174  -3.550  0.00  0.00     0.015 C 
ATOM     12  C8   11 d          -2.929   4.583  -3.234  0.00  0.00     0.015 C 
ATOM     13  C9   11 d          -1.552   3.214  -4.814  0.00  0.00     0.015 C 
ENDBRANCH   7  10
ENDBRANCH   3   4
ENDBRANCH   1   3
BRANCH   1  14
ATOM     14  C12  11 d          -2.596   2.506 -10.244  0.00  0.00     0.120 C 
BRANCH  14  15
ATOM     15  C13  11 d          -3.176   1.164 -10.711  0.00  0.00     0.113 C 
BRANCH  15  16
ATOM     16  C14  11 d          -2.227  -0.005 -10.603  0.00  0.00     0.222 C 
ATOM     17  O3   11 d          -1.181   0.107  -9.876  0.00  0.00    -0.273 OA
ATOM     18  N1   11 d          -2.527  -1.205 -11.327  0.00  0.00    -0.327 N 
ATOM     19  H24  11 d          -3.433  -1.167 -11.899  0.00  0.00     0.169 HD
BRANCH  18  20
ATOM     20  C15  11 d          -1.743  -2.470 -11.370  0.00  0.00     0.040 A 
ATOM     21  C16  11 d          -2.219  -3.565 -12.156  0.00  0.00    -0.035 A 
ATOM     22  C17  11 d          -1.495  -4.777 -12.193  0.00  0.00     0.009 A 
ATOM     23  C21  11 d          -3.482  -3.479 -12.980  0.00  0.00     0.050 C 
ATOM     24  C18  11 d          -0.311  -4.925 -11.468  0.00  0.00     0.001 A 
ATOM     25  C19  11 d           0.170  -3.864 -10.700  0.00  0.00     0.002 A 
ATOM     26  C20  11 d          -0.533  -2.653 -10.652  0.00  0.00     0.030 A 
ENDBRANCH  18  20
ENDBRANCH  15  16
ENDBRANCH  14  15
ENDBRANCH   1  14
TORSDOF 7
