REMARK  8 active torsions:
REMARK  status: ('A' for Active; 'I' for Inactive)
REMARK    1  A    between atoms: C1_1  and  C2_2 
REMARK       I    between atoms: C1_1  and  N1_24 
REMARK    2  A    between atoms: C5_5  and  O1_6 
REMARK    3  A    between atoms: O1_6  and  C6_7 
REMARK    4  A    between atoms: C6_7  and  C7_9 
REMARK    5  A    between atoms: C7_9  and  O3_10 
REMARK    6  A    between atoms: O3_10  and  C8_11 
REMARK    7  A    between atoms: C9_12  and  C15_18 
REMARK    8  A    between atoms: N1_24  and  C20_25 
ROOT
ATOM      1  C2   11 d           4.630  -8.838  -4.905  0.00  0.00     0.032 A 
ATOM      2  C3   11 d           5.346  -8.275  -5.986  0.00  0.00     0.020 A 
ATOM      3  C4   11 d           6.728  -8.055  -5.898  0.00  0.00     0.038 A 
ATOM      4  C5   11 d           7.429  -8.406  -4.738  0.00  0.00     0.079 A 
ATOM      5  C18  11 d           6.732  -8.968  -3.653  0.00  0.00     0.038 A 
ATOM      6  C19  11 d           5.347  -9.185  -3.735  0.00  0.00     0.020 A 
ENDROOT
BRANCH   4   7
ATOM      7  O1   11 d           8.829  -8.152  -4.683  0.00  0.00    -0.277 OA
BRANCH   7   8
ATOM      8  C6   11 d           9.636  -9.331  -4.545  0.00  0.00     0.288 C 
ATOM      9  O2   11 d           9.128 -10.484  -4.491  0.00  0.00    -0.262 OA
BRANCH   8  10
ATOM     10  C7   11 d          11.129  -9.175  -4.495  0.00  0.00     0.287 C 
BRANCH  10  11
ATOM     11  O3   11 d          11.712  -9.772  -3.297  0.00  0.00    -0.341 OA
BRANCH  11  12
ATOM     12  C8   11 d          13.087 -10.055  -3.532  0.00  0.00     0.076 A 
ATOM     13  C9   11 d          13.515 -11.361  -3.882  0.00  0.00    -0.021 A 
ATOM     14  C10  11 d          14.900 -11.592  -4.048  0.00  0.00     0.011 A 
ATOM     15  C11  11 d          15.829 -10.556  -3.875  0.00  0.00     0.007 A 
ATOM     16  C12  11 d          15.400  -9.262  -3.535  0.00  0.00    -0.059 A 
ATOM     17  C13  11 d          14.030  -9.035  -3.318  0.00  0.00     0.044 A 
ATOM     18  C14  11 d          16.404  -8.184  -3.235  0.00  0.00     0.048 C 
BRANCH  13  19
ATOM     19  C15  11 d          12.521 -12.512  -3.978  0.00  0.00     0.013 C 
ATOM     20  C16  11 d          12.939 -13.742  -3.156  0.00  0.00     0.015 C 
ATOM     21  C17  11 d          12.256 -12.882  -5.441  0.00  0.00     0.015 C 
ENDBRANCH  13  19
ENDBRANCH  11  12
ENDBRANCH  10  11
ENDBRANCH   8  10
ENDBRANCH   7   8
ENDBRANCH   4   7
BRANCH   1  22
ATOM     22  C1   11 d           3.154  -9.049  -5.038  0.00  0.00     0.256 C 
ATOM     23  O4   11 d           2.634  -9.044  -6.212  0.00  0.00    -0.267 OA
ATOM     24  N1   11 d           2.302  -9.255  -3.909  0.00  0.00    -0.323 N 
ATOM     25  H20  11 d           2.681  -9.268  -2.907  0.00  0.00     0.169 HD
BRANCH  24  26
ATOM     26  C20  11 d           0.865  -9.459  -4.082  0.00  0.00     0.035 A 
ATOM     27  C21  11 d           0.278 -10.659  -3.651  0.00  0.00     0.030 A 
ATOM     28  C22  11 d          -1.102 -10.867  -3.806  0.00  0.00     0.009 A 
ATOM     29  C23  11 d          -1.916  -9.862  -4.367  0.00  0.00    -0.062 A 
ATOM     30  C24  11 d          -1.317  -8.673  -4.828  0.00  0.00     0.009 A 
ATOM     31  C26  11 d          -3.373 -10.126  -4.629  0.00  0.00     0.048 C 
ATOM     32  C25  11 d           0.062  -8.466  -4.671  0.00  0.00     0.030 A 
ENDBRANCH  24  26
ENDBRANCH   1  22
TORSDOF 8
