REMARK  7 active torsions:
REMARK  status: ('A' for Active; 'I' for Inactive)
REMARK    1  A    between atoms: C1_1  and  C2_2 
REMARK       I    between atoms: C1_1  and  N1_16 
REMARK    2  A    between atoms: C3_4  and  C6_7 
REMARK    3  A    between atoms: C6_7  and  S1_8 
REMARK    4  A    between atoms: S1_8  and  C7_9 
REMARK    5  A    between atoms: N1_16  and  C13_17 
REMARK    6  A    between atoms: C15_20  and  C16_22 
REMARK    7  A    between atoms: C16_22  and  C17_23 
ROOT
ATOM      1  C1   11 d          -2.912  -0.382  -3.537  0.00  0.00     0.281 C 
ATOM      2  O2   11 d          -1.710  -0.802  -3.383  0.00  0.00    -0.265 OA
ATOM      3  N1   11 d          -3.406  -0.091  -4.847  0.00  0.00    -0.300 N 
ATOM      4  H10  11 d          -4.409   0.261  -4.979  0.00  0.00     0.171 HD
ENDROOT
BRANCH   1   5
ATOM      5  C2   11 d          -3.770  -0.206  -2.328  0.00  0.00     0.143 A 
ATOM      6  O1   11 d          -3.325  -0.360  -1.101  0.00  0.00    -0.309 OA
ATOM      7  C3   11 d          -4.315  -0.113  -0.279  0.00  0.00     0.063 A 
ATOM      8  C4   11 d          -5.474   0.177  -0.977  0.00  0.00     0.036 A 
ATOM      9  C5   11 d          -5.117   0.136  -2.309  0.00  0.00     0.045 A 
BRANCH   7  10
ATOM     10  C6   11 d          -4.206  -0.254   1.206  0.00  0.00     0.144 C 
BRANCH  10  11
ATOM     11  S1   11 d          -4.378   1.397   1.992  0.00  0.00    -0.123 SA
BRANCH  11  12
ATOM     12  C7   11 d          -4.254   0.757   3.679  0.00  0.00     0.000 A 
ATOM     13  C8   11 d          -5.415   0.412   4.390  0.00  0.00     0.018 A 
ATOM     14  C9   11 d          -5.316  -0.077   5.702  0.00  0.00     0.001 A 
ATOM     15  C10  11 d          -4.056  -0.221   6.303  0.00  0.00     0.000 A 
ATOM     16  C11  11 d          -2.896   0.125   5.594  0.00  0.00     0.001 A 
ATOM     17  C12  11 d          -2.995   0.614   4.283  0.00  0.00     0.018 A 
ENDBRANCH  11  12
ENDBRANCH  10  11
ENDBRANCH   7  10
ENDBRANCH   1   5
BRANCH   3  18
ATOM     18  C13  11 d          -2.592  -0.248  -6.051  0.00  0.00     0.173 A 
ATOM     19  N2   11 d          -1.310  -0.676  -6.119  0.00  0.00    -0.235 NA
ATOM     20  C14  11 d          -0.881  -0.687  -7.410  0.00  0.00     0.134 A 
ATOM     21  C15  11 d          -1.882  -0.250  -8.273  0.00  0.00     0.008 A 
ATOM     22  S2   11 d          -3.081   0.060  -7.434  0.00  0.00    -0.055 SA
BRANCH  21  23
ATOM     23  C16  11 d          -1.800  -0.119  -9.773  0.00  0.00     0.088 C 
BRANCH  23  24
ATOM     24  C17  11 d          -0.773   0.862 -10.323  0.00  0.00    -0.032 A 
ATOM     25  C18  11 d          -0.644   0.998 -11.729  0.00  0.00     0.040 A 
ATOM     26 Cl1   11 d          -1.644   0.058 -12.874  0.00  0.00    -0.084 Cl
ATOM     27  C19  11 d           0.292   1.892 -12.276  0.00  0.00     0.024 A 
ATOM     28  C20  11 d           1.108   2.662 -11.438  0.00  0.00     0.002 A 
ATOM     29  C21  11 d           0.989   2.545 -10.049  0.00  0.00     0.001 A 
ATOM     30  C22  11 d           0.056   1.658  -9.494  0.00  0.00     0.009 A 
ENDBRANCH  23  24
ENDBRANCH  21  23
ENDBRANCH   3  18
TORSDOF 7
