REMARK  2 active torsions:
REMARK  status: ('A' for Active; 'I' for Inactive)
REMARK       I    between atoms: C2_3  and  N5_12 
REMARK       I    between atoms: C3_5  and  N4_7 
REMARK    1  A    between atoms: N4_7  and  C4_8 
REMARK    2  A    between atoms: N5_12  and  C8_13 
ROOT
ATOM      1  C1   11 d           2.663   6.468  -3.461  0.00  0.00     0.259 A 
ATOM      2  N1   11 d           1.855   5.835  -2.574  0.00  0.00    -0.030 NA
ATOM      3  C2   11 d           2.254   5.652  -1.286  0.00  0.00     0.745 A 
ATOM      4  N2   11 d           3.483   6.103  -0.906  0.00  0.00     0.130 NA
ATOM      5  C3   11 d           4.299   6.752  -1.783  0.00  0.00     0.741 A 
ATOM      6  N3   11 d           3.878   6.925  -3.066  0.00  0.00    -0.030 NA
ATOM      7  N4   11 d           5.527   7.215  -1.328  0.00  0.00    -0.214 N 
ATOM      8  N5   11 d           1.405   4.973  -0.426  0.00  0.00    -0.188 N 
ATOM      9 Cl1   11 d           2.133   6.702  -5.139  0.00  0.00    -0.040 Cl
ATOM     10  H1   11 d           5.740   7.003  -0.378  0.00  0.00     0.178 HD
ATOM     11  H11  11 d           0.605   4.544  -0.835  0.00  0.00     0.184 HD
ENDROOT
BRANCH   8  12
ATOM     12  C8   11 d           1.578   4.837   0.949  0.00  0.00     0.049 A 
ATOM     13  C9   11 d           1.096   3.666   1.568  0.00  0.00     0.030 A 
ATOM     14  C10  11 d           1.224   3.477   2.952  0.00  0.00     0.009 A 
ATOM     15  C11  11 d           1.811   4.471   3.755  0.00  0.00    -0.062 A 
ATOM     16  C12  11 d           2.317   5.633   3.142  0.00  0.00     0.009 A 
ATOM     17  C14  11 d           2.043   4.223   5.220  0.00  0.00     0.048 C 
ATOM     18  C13  11 d           2.179   5.827   1.758  0.00  0.00     0.030 A 
ENDBRANCH   8  12
BRANCH   7  19
ATOM     19  C4   11 d           6.484   7.960  -2.095  0.00  0.00     0.036 C 
ATOM     20  C5   11 d           7.669   8.352  -1.177  0.00  0.00     0.038 C 
ATOM     21  C6   11 d           5.878   9.271  -2.644  0.00  0.00     0.038 C 
ATOM     22  C7   11 d           7.050   7.100  -3.245  0.00  0.00     0.038 C 
ENDBRANCH   7  19
TORSDOF 2
