REMARK  5 active torsions:
REMARK  status: ('A' for Active; 'I' for Inactive)
REMARK    1  A    between atoms: C16_18  and  C17_19 
REMARK    2  A    between atoms: C17_19  and  O4_21 
REMARK    3  A    between atoms: N1_25  and  C22_28 
REMARK    4  A    between atoms: C22_28  and  C23_29 
REMARK    5  A    between atoms: C23_29  and  C24_30 
ROOT
ATOM      1  C1   11 d           3.001  -3.581  -3.427  0.00  0.00     0.156 A 
ATOM      2  C2   11 d           3.714  -2.718  -2.621  0.00  0.00     0.060 A 
ATOM      3  C3   11 d           5.061  -3.006  -2.356  0.00  0.00     0.196 A 
ATOM      4  C4   11 d           5.622  -4.191  -2.892  0.00  0.00     0.049 A 
ATOM      5  C5   11 d           4.785  -5.028  -3.681  0.00  0.00     0.091 A 
ATOM      6  O1   11 d           3.528  -4.688  -3.921  0.00  0.00    -0.303 OA
ATOM      7  C6   11 d           5.288  -6.226  -4.201  0.00  0.00     0.045 A 
ATOM      8  C7   11 d           6.614  -6.628  -3.943  0.00  0.00    -0.053 A 
ATOM      9  C8   11 d           7.476  -5.763  -3.216  0.00  0.00    -0.055 A 
ATOM     10  C9   11 d           6.960  -4.570  -2.668  0.00  0.00     0.025 A 
ATOM     11  C10  11 d           8.888  -6.163  -2.859  0.00  0.00     0.049 C 
ATOM     12  C11  11 d           7.117  -7.893  -4.597  0.00  0.00     0.049 C 
ATOM     13  O2   11 d           5.747  -2.219  -1.654  0.00  0.00    -0.287 OA
ATOM     14  C12  11 d           2.861  -1.561  -2.142  0.00  0.00     0.161 A 
ATOM     15  C13  11 d           2.654  -1.475  -0.628  0.00  0.00    -0.030 A 
ATOM     16  C14  11 d           1.926  -0.389  -0.096  0.00  0.00     0.011 A 
ATOM     17  C15  11 d           1.665  -0.291   1.279  0.00  0.00     0.018 A 
ATOM     18  C16  11 d           2.128  -1.279   2.169  0.00  0.00     0.039 A 
ATOM     19  C19  11 d           2.893  -2.342   1.655  0.00  0.00     0.018 A 
ATOM     20  C20  11 d           3.160  -2.435   0.281  0.00  0.00     0.011 A 
ATOM     21  N1   11 d           1.563  -1.808  -2.884  0.00  0.00    -0.333 N 
ATOM     22  C21  11 d           1.657  -3.057  -3.561  0.00  0.00     0.279 A 
ATOM     23  O5   11 d           0.706  -3.644  -4.186  0.00  0.00    -0.265 OA
ENDROOT
BRANCH  21  24
ATOM     24  C22  11 d           0.401  -0.854  -2.879  0.00  0.00     0.132 C 
BRANCH  24  25
ATOM     25  C23  11 d          -0.639  -1.034  -3.996  0.00  0.00     0.058 C 
BRANCH  25  26
ATOM     26  C24  11 d          -1.796  -0.050  -4.028  0.00  0.00    -0.057 A 
ATOM     27  C25  11 d          -2.953  -0.421  -4.748  0.00  0.00     0.007 A 
ATOM     28  C26  11 d          -4.083   0.409  -4.773  0.00  0.00     0.001 A 
ATOM     29  C27  11 d          -4.082   1.616  -4.062  0.00  0.00     0.000 A 
ATOM     30  C28  11 d          -2.954   1.988  -3.320  0.00  0.00     0.001 A 
ATOM     31  C29  11 d          -1.822   1.159  -3.292  0.00  0.00     0.007 A 
ENDBRANCH  25  26
ENDBRANCH  24  25
ENDBRANCH  21  24
BRANCH  18  32
ATOM     32  C17  11 d           1.797  -1.223   3.620  0.00  0.00     0.292 C 
ATOM     33  O3   11 d           1.205  -0.213   4.091  0.00  0.00    -0.259 OA
BRANCH  32  34
ATOM     34  O4   11 d           2.197  -2.300   4.477  0.00  0.00    -0.323 OA
ATOM     35  C18  11 d           2.295  -1.929   5.876  0.00  0.00     0.213 C 
ENDBRANCH  32  34
ENDBRANCH  18  32
TORSDOF 5
