REMARK  7 active torsions:
REMARK  status: ('A' for Active; 'I' for Inactive)
REMARK    1  A    between atoms: C1_1  and  C11_18 
REMARK    2  A    between atoms: C2_2  and  C3_3 
REMARK    3  A    between atoms: C3_3  and  C4_4 
REMARK    4  A    between atoms: C4_4  and  O1_5 
REMARK    5  A    between atoms: O1_5  and  C5_6 
REMARK    6  A    between atoms: C6_7  and  N1_8 
REMARK    7  A    between atoms: C8_12  and  N2_13 
ROOT
ATOM      1  C5   11 d           7.276  -9.172  -0.663  0.00  0.00     0.102 A 
ATOM      2  C6   11 d           8.371  -8.277  -0.585  0.00  0.00     0.138 A 
ATOM      3  C7   11 d           8.788  -7.821   0.688  0.00  0.00     0.075 A 
ATOM      4  C8   11 d           8.138  -8.238   1.874  0.00  0.00     0.105 A 
ATOM      5  C9   11 d           7.061  -9.143   1.763  0.00  0.00     0.039 A 
ATOM      6  C10  11 d           6.651  -9.617   0.512  0.00  0.00     0.042 A 
ENDROOT
BRANCH   1   7
ATOM      7  O1   11 d           6.886  -9.746  -1.908  0.00  0.00    -0.348 OA
BRANCH   7   8
ATOM      8  C4   11 d           5.607  -9.215  -2.355  0.00  0.00     0.188 C 
BRANCH   8   9
ATOM      9  C3   11 d           5.442  -9.509  -3.849  0.00  0.00     0.121 C 
BRANCH   9  10
ATOM     10  C2   11 d           4.027  -9.652  -4.213  0.00  0.00    -0.099 C 
ATOM     11  C1   11 d           2.865  -9.823  -4.486  0.00  0.00    -0.067 C 
BRANCH  11  12
ATOM     12  C11  11 d           1.478 -10.076  -4.790  0.00  0.00     0.017 A 
ATOM     13  C12  11 d           0.687 -10.803  -3.882  0.00  0.00     0.020 A 
ATOM     14  C13  11 d          -0.656 -11.079  -4.184  0.00  0.00     0.001 A 
ATOM     15  C14  11 d          -1.212 -10.629  -5.391  0.00  0.00     0.000 A 
ATOM     16  C15  11 d          -0.424  -9.901  -6.298  0.00  0.00     0.001 A 
ATOM     17  C16  11 d           0.920  -9.624  -5.998  0.00  0.00     0.020 A 
ENDBRANCH  11  12
ENDBRANCH   9  10
ENDBRANCH   8   9
ENDBRANCH   7   8
ENDBRANCH   1   7
BRANCH   2  18
ATOM     18  N1   11 d           9.050  -7.864  -1.734  0.00  0.00    -0.113 N 
ATOM     19  O2   11 d           8.447  -7.585  -2.669  0.00  0.00    -0.532 OA
ATOM     20  O3   11 d          10.236  -7.445  -1.650  0.00  0.00    -0.532 OA
ENDBRANCH   2  18
BRANCH   4  21
ATOM     21  N2   11 d           8.544  -7.773   3.132  0.00  0.00    -0.116 N 
ATOM     22  O4   11 d           9.506  -7.161   3.242  0.00  0.00    -0.532 OA
ATOM     23  O5   11 d           7.932  -8.121   4.178  0.00  0.00    -0.532 OA
ENDBRANCH   4  21
TORSDOF 7
