REMARK  3 active torsions:
REMARK  status: ('A' for Active; 'I' for Inactive)
REMARK    1  A    between atoms: C1_1  and  C2_2 
REMARK       I    between atoms: C1_1  and  N2_9 
REMARK    2  A    between atoms: N2_9  and  N3_10 
REMARK    3  A    between atoms: C7_11  and  C8_12 
ROOT
ATOM      1  N3   11 d           7.893  -1.118   1.939  0.00  0.00    -0.183 NA
ATOM      2  C7   11 d           7.971   0.051   1.356  0.00  0.00     0.151 C 
ENDROOT
BRANCH   1   3
ATOM      3  N2   11 d           7.216  -1.190   3.165  0.00  0.00    -0.243 N 
ATOM      4  C1   11 d           7.113  -2.464   3.799  0.00  0.00     0.271 C 
ATOM      5  O1   11 d           7.636  -3.488   3.227  0.00  0.00    -0.266 OA
ATOM      6  H5   11 d           6.791  -0.305   3.600  0.00  0.00     0.192 HD
BRANCH   4   7
ATOM      7  C2   11 d           6.413  -2.647   5.106  0.00  0.00     0.036 A 
ATOM      8  C3   11 d           5.927  -3.924   5.462  0.00  0.00     0.036 A 
ATOM      9  C4   11 d           5.263  -4.104   6.683  0.00  0.00     0.117 A 
ATOM     10  N1   11 d           5.095  -3.049   7.529  0.00  0.00    -0.273 NA
ATOM     11  C5   11 d           5.560  -1.805   7.225  0.00  0.00     0.117 A 
ATOM     12  C6   11 d           6.227  -1.581   6.013  0.00  0.00     0.036 A 
ENDBRANCH   4   7
ENDBRANCH   1   3
BRANCH   2  13
ATOM     13  C8   11 d           8.650   0.239   0.043  0.00  0.00     0.003 A 
ATOM     14  C9   11 d           9.492  -0.731  -0.586  0.00  0.00     0.025 A 
ATOM     15 Br1   11 d           9.957  -2.451   0.177  0.00  0.00    -0.050 Br
ATOM     16  C10  11 d          10.061  -0.459  -1.847  0.00  0.00     0.059 A 
ATOM     17  C11  11 d           9.802   0.768  -2.459  0.00  0.00     0.106 A 
ATOM     18  C12  11 d           9.008   1.703  -1.863  0.00  0.00     0.105 A 
ATOM     19  O3   11 d          10.249   1.181  -3.723  0.00  0.00    -0.323 OA
ATOM     20  O2   11 d           8.835   2.842  -2.664  0.00  0.00    -0.323 OA
ATOM     21  C14  11 d           8.418   1.470  -0.619  0.00  0.00     0.054 A 
ATOM     22  C13  11 d           9.566   2.465  -3.873  0.00  0.00     0.352 A 
ENDBRANCH   2  13
TORSDOF 3
