REMARK  3 active torsions:
REMARK  status: ('A' for Active; 'I' for Inactive)
REMARK    1  A    between atoms: C7_7  and  N3_11 
REMARK    2  A    between atoms: N3_11  and  C9_12 
REMARK    3  A    between atoms: C9_12  and  C10_13 
ROOT
ATOM      1  C1   11 d           2.545  -1.268   0.494  0.00  0.00     0.134 A 
ATOM      2  C2   11 d           3.576  -0.563  -0.191  0.00  0.00    -0.005 A 
ATOM      3  C3   11 d           4.101   0.616   0.337  0.00  0.00    -0.033 A 
ATOM      4  C4   11 d           3.583   1.110   1.538  0.00  0.00     0.037 A 
ATOM      5  C5   11 d           3.875   2.268   2.262  0.00  0.00     0.092 A 
ATOM      6  C6   11 d           3.075   2.321   3.399  0.00  0.00     0.082 A 
ATOM      7  C7   11 d           3.183   3.408   4.285  0.00  0.00     0.144 A 
ATOM      8  N1   11 d           4.110   4.371   3.972  0.00  0.00    -0.223 NA
ATOM      9  C8   11 d           4.899   4.298   2.852  0.00  0.00     0.236 A 
ATOM     10  N2   11 d           4.781   3.244   1.990  0.00  0.00    -0.240 NA
ATOM     11  S1   11 d           2.178   1.111   3.445  0.00  0.00    -0.063 SA
ATOM     12  C14  11 d           2.587   0.392   2.192  0.00  0.00     0.114 A 
ATOM     13  N4   11 d           2.087  -0.771   1.692  0.00  0.00    -0.223 NA
ATOM     14  C15  11 d           4.985   1.309  -0.639  0.00  0.00     0.040 C 
ATOM     15  C16  11 d           4.566   0.652  -1.958  0.00  0.00     0.009 C 
ATOM     16  C17  11 d           4.052  -0.746  -1.593  0.00  0.00     0.043 C 
ATOM     17  N5   11 d           1.947  -2.423   0.000  0.00  0.00    -0.361 N 
ATOM     18  C18  11 d           0.528  -2.513  -0.075  0.00  0.00     0.150 C 
ATOM     19  C19  11 d           0.087  -3.023  -1.454  0.00  0.00     0.187 C 
ATOM     20  O2   11 d           0.784  -4.251  -1.804  0.00  0.00    -0.388 OA
ATOM     21  C20  11 d           2.224  -4.036  -1.813  0.00  0.00     0.187 C 
ATOM     22  C21  11 d           2.715  -3.538  -0.445  0.00  0.00     0.150 C 
ENDROOT
BRANCH   7  23
ATOM     23  N3   11 d           2.384   3.535   5.416  0.00  0.00    -0.367 N 
ATOM     24  H2   11 d           1.734   2.813   5.616  0.00  0.00     0.161 HD
BRANCH  23  25
ATOM     25  C9   11 d           2.477   4.664   6.274  0.00  0.00     0.186 C 
BRANCH  25  26
ATOM     26  C10  11 d           1.545   4.696   7.462  0.00  0.00     0.070 A 
ATOM     27  O1   11 d           1.558   5.702   8.305  0.00  0.00    -0.325 OA
ATOM     28  C11  11 d           0.651   5.468   9.221  0.00  0.00     0.142 A 
ATOM     29  C12  11 d           0.010   4.266   8.988  0.00  0.00     0.027 A 
ATOM     30  C13  11 d           0.590   3.758   7.843  0.00  0.00     0.036 A 
ENDBRANCH  25  26
ENDBRANCH  23  25
ENDBRANCH   7  23
TORSDOF 3
