REMARK  5 active torsions:
REMARK  status: ('A' for Active; 'I' for Inactive)
REMARK    1  A    between atoms: C1_1  and  C2_2 
REMARK       I    between atoms: C1_1  and  N1_10 
REMARK    2  A    between atoms: C5_5  and  O1_8 
REMARK    3  A    between atoms: N1_10  and  N2_11 
REMARK    4  A    between atoms: C8_12  and  C9_13 
REMARK    5  A    between atoms: C10_14  and  O3_21 
ROOT
ATOM      1  C1   11 d           3.880  -7.563  -6.146  0.00  0.00     0.271 C 
ATOM      2  O2   11 d           3.115  -7.040  -5.257  0.00  0.00    -0.266 OA
ATOM      3  N1   11 d           4.566  -8.784  -5.852  0.00  0.00    -0.243 N 
ATOM      4  H6   11 d           5.211  -9.255  -6.566  0.00  0.00     0.192 HD
ENDROOT
BRANCH   3   5
ATOM      5  N2   11 d           4.443  -9.432  -4.620  0.00  0.00    -0.183 NA
ATOM      6  C8   11 d           3.287  -9.901  -4.202  0.00  0.00     0.153 C 
BRANCH   6   7
ATOM      7  C9   11 d           1.970  -9.920  -4.912  0.00  0.00     0.019 A 
ATOM      8  C10  11 d           1.786 -10.153  -6.301  0.00  0.00     0.094 A 
ATOM      9  C11  11 d           0.490 -10.100  -6.855  0.00  0.00     0.046 A 
ATOM     10 Br1   11 d           0.206 -10.321  -8.754  0.00  0.00    -0.048 Br
ATOM     11  C12  11 d          -0.627  -9.909  -6.029  0.00  0.00     0.041 A 
ATOM     12  C13  11 d          -0.459  -9.750  -4.649  0.00  0.00     0.013 A 
ATOM     13 Br2   11 d          -1.997  -9.530  -3.507  0.00  0.00    -0.051 Br
ATOM     14  C14  11 d           0.830  -9.750  -4.097  0.00  0.00     0.035 A 
BRANCH   8  15
ATOM     15  O3   11 d           2.881 -10.389  -7.168  0.00  0.00    -0.358 OA
ATOM     16  H10  11 d           3.029 -11.412  -7.147  0.00  0.00     0.217 HD
ENDBRANCH   8  15
ENDBRANCH   6   7
ENDBRANCH   3   5
BRANCH   1  17
ATOM     17  C2   11 d           4.033  -6.882  -7.468  0.00  0.00     0.033 A 
ATOM     18  C3   11 d           3.020  -6.014  -7.933  0.00  0.00     0.020 A 
ATOM     19  C4   11 d           3.149  -5.360  -9.169  0.00  0.00     0.037 A 
ATOM     20  C5   11 d           4.303  -5.537  -9.944  0.00  0.00     0.065 A 
ATOM     21  C6   11 d           5.305  -6.413  -9.506  0.00  0.00     0.037 A 
ATOM     22  C7   11 d           5.180  -7.072  -8.273  0.00  0.00     0.020 A 
BRANCH  20  23
ATOM     23  O1   11 d           4.404  -4.930 -11.214  0.00  0.00    -0.361 OA
ATOM     24  H5   11 d           4.891  -4.032 -11.048  0.00  0.00     0.217 HD
ENDBRANCH  20  23
ENDBRANCH   1  17
TORSDOF 5
