REMARK  4 active torsions:
REMARK  status: ('A' for Active; 'I' for Inactive)
REMARK    1  A    between atoms: C1_1  and  C2_2 
REMARK       I    between atoms: C1_1  and  N2_12 
REMARK    2  A    between atoms: C4_4  and  N1_5 
REMARK    3  A    between atoms: N2_12  and  N3_13 
REMARK    4  A    between atoms: C8_14  and  C9_15 
ROOT
ATOM      1  C1   11 d           2.382  -9.920  -5.400  0.00  0.00     0.271 C 
ATOM      2  O3   11 d           2.613  -9.706  -6.644  0.00  0.00    -0.266 OA
ATOM      3  N2   11 d           3.467  -9.824  -4.476  0.00  0.00    -0.243 N 
ATOM      4  H5   11 d           3.341  -9.988  -3.423  0.00  0.00     0.192 HD
ENDROOT
BRANCH   1   5
ATOM      5  C2   11 d           0.985 -10.259  -4.977  0.00  0.00     0.036 A 
ATOM      6  C3   11 d          -0.085 -10.020  -5.870  0.00  0.00     0.053 A 
ATOM      7  C4   11 d          -1.425 -10.325  -5.527  0.00  0.00     0.103 A 
ATOM      8  C5   11 d          -1.675 -10.882  -4.253  0.00  0.00     0.036 A 
ATOM      9  C6   11 d          -0.626 -11.130  -3.361  0.00  0.00     0.003 A 
ATOM     10  C7   11 d           0.693 -10.826  -3.718  0.00  0.00     0.017 A 
BRANCH   7  11
ATOM     11  N1   11 d          -2.478 -10.079  -6.414  0.00  0.00    -0.116 N 
ATOM     12  O1   11 d          -2.275  -9.663  -7.461  0.00  0.00    -0.532 OA
ATOM     13  O2   11 d          -3.659 -10.424  -6.130  0.00  0.00    -0.532 OA
ENDBRANCH   7  11
ENDBRANCH   1   5
BRANCH   3  14
ATOM     14  N3   11 d           4.733  -9.501  -4.988  0.00  0.00    -0.181 NA
ATOM     15  C8   11 d           5.728  -9.412  -4.141  0.00  0.00     0.175 C 
BRANCH  15  16
ATOM     16  C9   11 d           7.083  -9.073  -4.618  0.00  0.00     0.094 A 
ATOM     17  O4   11 d           7.379  -8.842  -5.874  0.00  0.00    -0.314 OA
ATOM     18  C10  11 d           8.663  -8.594  -5.942  0.00  0.00     0.050 A 
ATOM     19  C11  11 d           9.230  -8.595  -4.678  0.00  0.00     0.035 A 
ATOM     20  C13  11 d           9.323  -8.107  -7.191  0.00  0.00     0.076 C 
ATOM     21  C12  11 d           8.205  -8.934  -3.817  0.00  0.00     0.041 A 
ENDBRANCH  15  16
ENDBRANCH   3  14
TORSDOF 4
