REMARK  3 active torsions:
REMARK  status: ('A' for Active; 'I' for Inactive)
REMARK    1  A    between atoms: C4_5  and  N1_8 
REMARK    2  A    between atoms: N1_8  and  S1_9 
REMARK    3  A    between atoms: S1_9  and  C7_10 
ROOT
ATOM      1  N1   11 d          -2.433 -11.353  -5.343  0.00  0.00    -0.281 N 
ATOM      2  H4   11 d          -2.775 -12.157  -4.869  0.00  0.00     0.179 HD
ENDROOT
BRANCH   1   3
ATOM      3  C4   11 d          -1.121 -10.947  -5.120  0.00  0.00     0.044 A 
ATOM      4  C3   11 d          -0.453 -11.432  -3.974  0.00  0.00     0.057 A 
ATOM      5  C2   11 d           0.860 -11.034  -3.679  0.00  0.00     0.074 A 
ATOM      6  C1   11 d           1.533 -10.150  -4.538  0.00  0.00     0.138 A 
ATOM      7 Cl1   11 d           1.655 -11.652  -2.209  0.00  0.00    -0.081 Cl
ATOM      8  C6   11 d           0.888  -9.665  -5.683  0.00  0.00     0.046 A 
ATOM      9  F1   11 d           2.811  -9.753  -4.269  0.00  0.00    -0.204 F 
ATOM     10  C5   11 d          -0.428 -10.054  -5.972  0.00  0.00     0.033 A 
ENDBRANCH   1   3
BRANCH   1  11
ATOM     11  S1   11 d          -3.522 -10.566  -6.366  0.00  0.00     0.264 S 
ATOM     12  O1   11 d          -2.989 -10.585  -7.801  0.00  0.00    -0.200 OA
ATOM     13  O2   11 d          -3.619  -9.098  -5.944  0.00  0.00    -0.200 OA
BRANCH  11  14
ATOM     14  C7   11 d          -5.171 -11.298  -6.317  0.00  0.00     0.101 A 
ATOM     15  C8   11 d          -5.885 -11.427  -5.104  0.00  0.00     0.057 A 
ATOM     16 Cl2   11 d          -5.210 -10.902  -3.536  0.00  0.00    -0.083 Cl
ATOM     17  C9   11 d          -7.170 -11.994  -5.104  0.00  0.00     0.025 A 
ATOM     18  C10  11 d          -7.755 -12.424  -6.303  0.00  0.00     0.002 A 
ATOM     19  C11  11 d          -7.053 -12.295  -7.509  0.00  0.00     0.002 A 
ATOM     20  C12  11 d          -5.765 -11.740  -7.516  0.00  0.00     0.027 A 
ENDBRANCH  11  14
ENDBRANCH   1  11
TORSDOF 3
