REMARK  4 active torsions:
REMARK  status: ('A' for Active; 'I' for Inactive)
REMARK    1  A    between atoms: C1_1  and  S1_2 
REMARK    2  A    between atoms: S1_2  and  C2_3 
REMARK    3  A    between atoms: S1_2  and  N1_9 
REMARK    4  A    between atoms: N1_9  and  N2_10 
ROOT
ATOM      1  S1   11 d           3.159 -10.303  -4.554  0.00  0.00    -0.036 SA
ENDROOT
BRANCH   1   2
ATOM      2  C1   11 d           3.716  -9.070  -5.783  0.00  0.00     0.016 A 
ATOM      3  C8   11 d           3.269  -7.731  -5.822  0.00  0.00     0.020 A 
ATOM      4  C9   11 d           3.757  -6.848  -6.797  0.00  0.00     0.001 A 
ATOM      5  C10  11 d           4.695  -7.290  -7.740  0.00  0.00     0.000 A 
ATOM      6  C11  11 d           5.147  -8.617  -7.708  0.00  0.00     0.001 A 
ATOM      7  C12  11 d           4.659  -9.501  -6.734  0.00  0.00     0.020 A 
ENDBRANCH   1   2
BRANCH   1   8
ATOM      8  C2   11 d           4.165  -9.632  -3.187  0.00  0.00     0.016 A 
ATOM      9  C3   11 d           5.247 -10.412  -2.741  0.00  0.00     0.020 A 
ATOM     10  C4   11 d           6.069  -9.962  -1.697  0.00  0.00     0.001 A 
ATOM     11  C5   11 d           5.817  -8.723  -1.091  0.00  0.00     0.000 A 
ATOM     12  C6   11 d           4.741  -7.937  -1.526  0.00  0.00     0.001 A 
ATOM     13  C7   11 d           3.916  -8.388  -2.568  0.00  0.00     0.020 A 
ENDBRANCH   1   8
BRANCH   1  14
ATOM     14  N1   11 d           1.624  -9.653  -4.144  0.00  0.00    -0.216 N 
ATOM     15  H6   11 d           1.113  -9.174  -4.851  0.00  0.00     0.201 HD
BRANCH  14  16
ATOM     16  N2   11 d           1.111  -9.765  -2.990  0.00  0.00    -0.033 N 
ATOM     17  O1   11 d           1.327 -10.698  -2.364  0.00  0.00    -0.516 OA
ATOM     18  O2   11 d           0.074  -9.100  -2.717  0.00  0.00    -0.516 OA
ENDBRANCH  14  16
ENDBRANCH   1  14
TORSDOF 4
