REMARK  3 active torsions:
REMARK  status: ('A' for Active; 'I' for Inactive)
REMARK    1  A    between atoms: N1_2  and  C11_14 
REMARK    2  A    between atoms: C6_7  and  O1_8 
REMARK    3  A    between atoms: C11_14  and  C12_15 
ROOT
ATOM      1  C1   11 d           3.654  -3.908  -4.008  0.00  0.00     0.230 C 
ATOM      2  N1   11 d           3.871  -3.732  -5.394  0.00  0.00    -0.333 N 
ATOM      3  C2   11 d           2.910  -4.519  -6.221  0.00  0.00     0.183 C 
ATOM      4  C3   11 d           2.123  -3.602  -7.145  0.00  0.00    -0.025 A 
ATOM      5  C4   11 d           1.849  -3.999  -8.470  0.00  0.00     0.013 A 
ATOM      6  C5   11 d           1.380  -3.069  -9.413  0.00  0.00     0.037 A 
ATOM      7  C6   11 d           1.210  -1.722  -9.056  0.00  0.00     0.068 A 
ATOM      8  C8   11 d           1.407  -1.331  -7.723  0.00  0.00     0.037 A 
ATOM      9  C9   11 d           1.863  -2.259  -6.779  0.00  0.00     0.013 A 
ATOM     10  S1   11 d           1.735  -5.364  -5.084  0.00  0.00    -0.130 SA
ATOM     11  C10  11 d           2.305  -4.392  -3.639  0.00  0.00     0.179 C 
ATOM     12  O2   11 d           4.575  -3.813  -3.129  0.00  0.00    -0.273 OA
ENDROOT
BRANCH   2  13
ATOM     13  C11  11 d           4.898  -2.834  -6.042  0.00  0.00     0.137 C 
BRANCH  13  14
ATOM     14  C12  11 d           6.447  -3.044  -5.980  0.00  0.00    -0.023 C 
ATOM     15  C13  11 d           7.052  -1.742  -6.610  0.00  0.00     0.015 C 
ATOM     16  C14  11 d           8.590  -1.762  -6.607  0.00  0.00    -0.013 C 
ATOM     17  C15  11 d           9.078  -2.965  -7.442  0.00  0.00     0.009 C 
ATOM     18  C21  11 d           9.080  -1.883  -5.147  0.00  0.00     0.009 C 
ATOM     19  C16  11 d           8.529  -4.275  -6.827  0.00  0.00    -0.013 C 
ATOM     20  C17  11 d           6.970  -4.251  -6.821  0.00  0.00     0.015 C 
ATOM     21  C18  11 d           9.066  -4.398  -5.381  0.00  0.00     0.009 C 
ATOM     22  C19  11 d           8.559  -3.203  -4.540  0.00  0.00    -0.013 C 
ATOM     23  C20  11 d           7.014  -3.200  -4.542  0.00  0.00     0.015 C 
ENDBRANCH  13  14
ENDBRANCH   2  13
BRANCH   7  24
ATOM     24  O1   11 d           0.799  -0.777 -10.034  0.00  0.00    -0.356 OA
ATOM     25  C7   11 d           1.883   0.143 -10.344  0.00  0.00     0.210 C 
ENDBRANCH   7  24
TORSDOF 3
