REMARK  1 active torsions:
REMARK  status: ('A' for Active; 'I' for Inactive)
REMARK    1  A    between atoms: C1_1  and  N1_13 
ROOT
ATOM      1  C1   11 d          -2.026   3.602  -0.517  0.00  0.00     0.200 A 
ATOM      2  C2   11 d          -2.252   3.852  -1.891  0.00  0.00     0.086 A 
ATOM      3  C3   11 d          -2.534   5.167  -2.326  0.00  0.00     0.022 A 
ATOM      4  C4   11 d          -2.580   6.193  -1.348  0.00  0.00     0.091 A 
ATOM      5  O1   11 d          -2.364   5.912  -0.078  0.00  0.00    -0.273 OA
ATOM      6  C5   11 d          -2.095   4.700   0.373  0.00  0.00     0.323 A 
ATOM      7  O2   11 d          -1.882   4.544   1.602  0.00  0.00    -0.257 OA
ATOM      8  C6   11 d          -2.857   7.517  -1.724  0.00  0.00     0.038 A 
ATOM      9  C7   11 d          -3.090   7.833  -3.069  0.00  0.00     0.003 A 
ATOM     10  C8   11 d          -3.048   6.827  -4.044  0.00  0.00     0.001 A 
ATOM     11  C9   11 d          -2.772   5.500  -3.679  0.00  0.00     0.016 A 
ATOM     12 Cl1   11 d          -2.209   2.489  -3.058  0.00  0.00    -0.080 Cl
ENDROOT
BRANCH   1  13
ATOM     13  N1   11 d          -1.737   2.318  -0.076  0.00  0.00    -0.107 N 
ATOM     14  O3   11 d          -2.204   1.934   0.896  0.00  0.00    -0.531 OA
ATOM     15  O4   11 d          -0.694   1.748  -0.497  0.00  0.00    -0.531 OA
ENDBRANCH   1  13
TORSDOF 1
