REMARK  3 active torsions:
REMARK  status: ('A' for Active; 'I' for Inactive)
REMARK       I    between atoms: C9_12  and  N5_15 
REMARK    1  A    between atoms: N5_15  and  N6_16 
REMARK    2  A    between atoms: C10_17  and  C11_18 
REMARK    3  A    between atoms: C14_21  and  N7_22 
ROOT
ATOM      1  C1   11 d          -4.479  -4.493   4.596  0.00  0.00     0.138 A 
ATOM      2  C2   11 d          -4.603  -4.648   3.232  0.00  0.00     0.026 A 
ATOM      3  C3   11 d          -5.958  -4.525   2.944  0.00  0.00     0.046 A 
ATOM      4  C4   11 d          -6.427  -4.619   1.629  0.00  0.00     0.032 A 
ATOM      5  C5   11 d          -5.487  -4.850   0.602  0.00  0.00     0.021 A 
ATOM      6  C6   11 d          -4.110  -4.982   0.901  0.00  0.00     0.011 A 
ATOM      7 Br1   11 d          -2.849  -5.304  -0.520  0.00  0.00    -0.051 Br
ATOM      8  C7   11 d          -3.652  -4.879   2.232  0.00  0.00     0.035 A 
ATOM      9  N1   11 d          -6.648  -4.311   4.090  0.00  0.00    -0.338 N 
ATOM     10  C8   11 d          -5.750  -4.292   5.100  0.00  0.00     0.179 A 
ATOM     11  N2   11 d          -5.948  -4.105   6.428  0.00  0.00    -0.040 NA
ATOM     12  C9   11 d          -4.855  -4.104   7.257  0.00  0.00     0.763 A 
ATOM     13  N3   11 d          -3.598  -4.302   6.720  0.00  0.00     0.046 NA
ATOM     14  N4   11 d          -3.404  -4.498   5.426  0.00  0.00    -0.129 NA
ATOM     15  N5   11 d          -5.044  -3.889   8.609  0.00  0.00    -0.104 N 
ATOM     16  H4   11 d          -7.685  -4.178   4.183  0.00  0.00     0.167 HD
ATOM     17  H5   11 d          -5.966  -3.917   8.979  0.00  0.00     0.208 HD
ENDROOT
BRANCH  15  18
ATOM     18  N6   11 d          -4.041  -3.625   9.428  0.00  0.00    -0.172 NA
ATOM     19  C10  11 d          -3.268  -4.576   9.913  0.00  0.00     0.150 C 
BRANCH  19  20
ATOM     20  C11  11 d          -3.349  -6.062   9.720  0.00  0.00    -0.017 A 
ATOM     21  C12  11 d          -4.496  -6.767   9.296  0.00  0.00     0.015 A 
ATOM     22  C13  11 d          -4.471  -8.163   9.157  0.00  0.00     0.037 A 
ATOM     23  C14  11 d          -3.306  -8.907   9.456  0.00  0.00     0.102 A 
ATOM     24  C15  11 d          -2.168  -8.200   9.899  0.00  0.00     0.037 A 
ATOM     25  C16  11 d          -2.191  -6.804  10.028  0.00  0.00     0.015 A 
BRANCH  23  26
ATOM     26  N7   11 d          -3.276 -10.298   9.330  0.00  0.00    -0.116 N 
ATOM     27  O1   11 d          -4.178 -10.867   8.912  0.00  0.00    -0.532 OA
ATOM     28  O2   11 d          -2.239 -10.956   9.620  0.00  0.00    -0.532 OA
ENDBRANCH  23  26
ENDBRANCH  19  20
ENDBRANCH  15  18
TORSDOF 3
