REMARK  5 active torsions:
REMARK  status: ('A' for Active; 'I' for Inactive)
REMARK    1  A    between atoms: N1_9  and  C15_18 
REMARK    2  A    between atoms: C15_18  and  C16_19 
REMARK    3  A    between atoms: C16_19  and  O2_21 
REMARK    4  A    between atoms: O2_21  and  C17_22 
REMARK    5  A    between atoms: C18_23  and  C19_24 
ROOT
ATOM      1  C1   11 d           2.896   4.762  -7.152  0.00  0.00     0.121 A 
ATOM      2  C2   11 d           3.516   4.714  -5.803  0.00  0.00     0.008 A 
ATOM      3  C3   11 d           4.555   3.799  -5.544  0.00  0.00     0.017 A 
ATOM      4  C4   11 d           5.153   3.747  -4.276  0.00  0.00     0.025 A 
ATOM      5  C5   11 d           4.721   4.613  -3.258  0.00  0.00     0.034 A 
ATOM      6 Cl1   11 d           5.478   4.544  -1.649  0.00  0.00    -0.084 Cl
ATOM      7  C6   11 d           3.697   5.537  -3.514  0.00  0.00     0.025 A 
ATOM      8  C7   11 d           3.099   5.593  -4.783  0.00  0.00     0.017 A 
ATOM      9  N1   11 d           1.579   4.522  -7.441  0.00  0.00    -0.321 N 
ATOM     10  C8   11 d           1.443   4.660  -8.792  0.00  0.00     0.063 A 
ATOM     11  C9   11 d           2.692   4.976  -9.309  0.00  0.00     0.062 A 
ATOM     12  N2   11 d           3.579   5.029  -8.297  0.00  0.00    -0.335 N 
ATOM     13  C10  11 d           4.984   5.442  -8.402  0.00  0.00     0.158 C 
ATOM     14  C11  11 d           2.896   5.167 -10.686  0.00  0.00     0.032 A 
ATOM     15  C12  11 d           1.798   5.031 -11.552  0.00  0.00     0.002 A 
ATOM     16  C13  11 d           0.528   4.701 -11.040  0.00  0.00     0.002 A 
ATOM     17  C14  11 d           0.343   4.507  -9.657  0.00  0.00     0.032 A 
ENDROOT
BRANCH   9  18
ATOM     18  C15  11 d           0.585   4.160  -6.400  0.00  0.00     0.241 C 
BRANCH  18  19
ATOM     19  C16  11 d          -0.869   3.938  -6.720  0.00  0.00     0.277 C 
ATOM     20  O1   11 d          -1.558   4.881  -7.190  0.00  0.00    -0.263 OA
BRANCH  19  21
ATOM     21  O2   11 d          -1.452   2.661  -6.443  0.00  0.00    -0.314 OA
BRANCH  21  22
ATOM     22  C17  11 d          -2.536   2.237  -7.322  0.00  0.00     0.136 C 
ATOM     23  C18  11 d          -3.621   1.499  -6.483  0.00  0.00     0.018 C 
ATOM     24  C22  11 d          -3.090   0.110  -6.036  0.00  0.00     0.008 C 
ATOM     25  C23  11 d          -2.575  -0.743  -7.204  0.00  0.00     0.005 C 
ATOM     26  C24  11 d          -1.506  -0.032  -8.048  0.00  0.00    -0.016 C 
ATOM     27  C25  11 d          -1.996   1.364  -8.472  0.00  0.00     0.037 C 
ATOM     28  C26  11 d          -0.126  -0.021  -7.379  0.00  0.00     0.010 C 
BRANCH  23  29
ATOM     29  C19  11 d          -4.152   2.355  -5.282  0.00  0.00    -0.016 C 
ATOM     30  C20  11 d          -5.186   1.618  -4.409  0.00  0.00     0.010 C 
ATOM     31  C21  11 d          -4.766   3.695  -5.729  0.00  0.00     0.010 C 
ENDBRANCH  23  29
ENDBRANCH  21  22
ENDBRANCH  19  21
ENDBRANCH  18  19
ENDBRANCH   9  18
TORSDOF 5
