REMARK  0 active torsions:
REMARK  status: ('A' for Active; 'I' for Inactive)
ROOT
ATOM      1  C1   11 d          -5.163   6.542  -3.717  0.00  0.00    -0.021 A 
ATOM      2  C2   11 d          -4.064   6.183  -2.901  0.00  0.00     0.035 A 
ATOM      3  C3   11 d          -2.759   6.476  -3.336  0.00  0.00     0.033 A 
ATOM      4  C4   11 d          -2.554   7.067  -4.594  0.00  0.00     0.044 A 
ATOM      5  C5   11 d          -3.647   7.355  -5.428  0.00  0.00     0.117 A 
ATOM      6  F1   11 d          -3.436   7.906  -6.658  0.00  0.00    -0.206 F 
ATOM      7  C6   11 d          -4.954   7.083  -4.998  0.00  0.00     0.052 A 
ATOM      8  N1   11 d          -4.293   5.435  -1.737  0.00  0.00    -0.380 N 
ATOM      9  C7   11 d          -5.478   4.628  -1.521  0.00  0.00     0.121 C 
ATOM     10  C8   11 d          -5.144   3.159  -1.258  0.00  0.00    -0.018 A 
ATOM     11  C9   11 d          -6.170   2.257  -0.900  0.00  0.00     0.125 A 
ATOM     12  N2   11 d          -5.897   0.943  -0.657  0.00  0.00    -0.273 NA
ATOM     13  C10  11 d          -4.634   0.442  -0.747  0.00  0.00     0.116 A 
ATOM     14  C11  11 d          -3.574   1.287  -1.088  0.00  0.00     0.020 A 
ATOM     15  C12  11 d          -3.829   2.642  -1.340  0.00  0.00     0.012 A 
ATOM     16  C13  11 d          -6.455   4.774  -2.733  0.00  0.00     0.028 C 
ATOM     17  C14  11 d          -6.510   6.257  -3.111  0.00  0.00     0.050 C 
ATOM     18  C15  11 d          -7.783   6.380  -3.872  0.00  0.00    -0.021 C 
ATOM     19  C16  11 d          -8.518   5.284  -3.715  0.00  0.00    -0.029 C 
ATOM     20  C17  11 d          -7.918   4.342  -2.712  0.00  0.00     0.035 C 
ATOM     21  H4   11 d          -3.604   5.458  -1.019  0.00  0.00     0.160 HD
ENDROOT
TORSDOF 0
