REMARK  6 active torsions:
REMARK  status: ('A' for Active; 'I' for Inactive)
REMARK    1  A    between atoms: C1_1  and  O2_3 
REMARK    2  A    between atoms: C1_1  and  C3_5 
REMARK    3  A    between atoms: C3_5  and  N1_6 
REMARK    4  A    between atoms: C3_5  and  C11_16 
REMARK       I    between atoms: N1_6  and  C4_7 
REMARK    5  A    between atoms: C4_7  and  C5_8 
REMARK    6  A    between atoms: C11_16  and  C12_17 
ROOT
ATOM      1  C3   11 d           3.423  -8.926  -5.588  0.00  0.00     0.188 C 
ENDROOT
BRANCH   1   2
ATOM      2  C1   11 d           2.640  -7.631  -5.661  0.00  0.00     0.281 C 
ATOM      3  O1   11 d           3.197  -6.606  -6.136  0.00  0.00    -0.263 OA
BRANCH   2   4
ATOM      4  O2   11 d           1.239  -7.620  -5.380  0.00  0.00    -0.325 OA
ATOM      5  C2   11 d           0.479  -6.937  -6.411  0.00  0.00     0.213 C 
ENDBRANCH   2   4
ENDBRANCH   1   2
BRANCH   1   6
ATOM      6  N1   11 d           3.979  -9.109  -4.207  0.00  0.00    -0.343 N 
ATOM      7  C4   11 d           5.251  -9.720  -3.983  0.00  0.00     0.253 C 
ATOM      8  O3   11 d           5.936 -10.122  -4.989  0.00  0.00    -0.268 OA
ATOM      9  H5   11 d           3.392  -8.774  -3.371  0.00  0.00     0.163 HD
BRANCH   7  10
ATOM     10  C5   11 d           5.793  -9.896  -2.603  0.00  0.00     0.049 A 
ATOM     11  C6   11 d           6.562 -11.029  -2.230  0.00  0.00     0.026 A 
ATOM     12 Br1   11 d           6.961 -12.503  -3.423  0.00  0.00    -0.050 Br
ATOM     13  C7   11 d           7.051 -11.146  -0.917  0.00  0.00     0.020 A 
ATOM     14  C8   11 d           6.787 -10.150   0.032  0.00  0.00     0.001 A 
ATOM     15  C9   11 d           6.034  -9.027  -0.327  0.00  0.00     0.001 A 
ATOM     16  C10  11 d           5.542  -8.899  -1.633  0.00  0.00     0.018 A 
ENDBRANCH   7  10
ENDBRANCH   1   6
BRANCH   1  17
ATOM     17  C11  11 d           2.598 -10.177  -5.949  0.00  0.00     0.074 C 
BRANCH  17  18
ATOM     18  C12  11 d           1.893 -10.186  -7.293  0.00  0.00    -0.056 A 
ATOM     19  C13  11 d           0.615 -10.778  -7.387  0.00  0.00     0.007 A 
ATOM     20  C14  11 d          -0.095 -10.766  -8.597  0.00  0.00     0.001 A 
ATOM     21  C15  11 d           0.449 -10.133  -9.722  0.00  0.00     0.000 A 
ATOM     22  C16  11 d           1.698  -9.505  -9.635  0.00  0.00     0.001 A 
ATOM     23  C17  11 d           2.413  -9.522  -8.428  0.00  0.00     0.007 A 
ENDBRANCH  17  18
ENDBRANCH   1  17
TORSDOF 6
