REMARK  0 active torsions:
REMARK  status: ('A' for Active; 'I' for Inactive)
REMARK       I    between atoms: C8_9  and  N3_19 
ROOT
ATOM      1  C1   11 d           2.757  -9.875  -4.375  0.00  0.00     0.088 A 
ATOM      2  C2   11 d           1.313 -10.199  -4.636  0.00  0.00    -0.007 A 
ATOM      3  C3   11 d           0.504 -10.919  -3.718  0.00  0.00     0.014 A 
ATOM      4  C4   11 d          -0.841 -11.199  -4.005  0.00  0.00     0.001 A 
ATOM      5  C5   11 d          -1.409 -10.770  -5.210  0.00  0.00     0.000 A 
ATOM      6  C6   11 d          -0.632 -10.059  -6.131  0.00  0.00     0.001 A 
ATOM      7  C7   11 d           0.713  -9.776  -5.848  0.00  0.00     0.014 A 
ATOM      8  N1   11 d           3.446  -9.174  -5.325  0.00  0.00    -0.063 NA
ATOM      9  C8   11 d           4.752  -8.837  -5.175  0.00  0.00     0.721 A 
ATOM     10  N2   11 d           5.412  -9.202  -4.047  0.00  0.00    -0.063 NA
ATOM     11  C9   11 d           4.810  -9.904  -3.041  0.00  0.00     0.088 A 
ATOM     12  C10  11 d           5.627 -10.260  -1.831  0.00  0.00    -0.007 A 
ATOM     13  C11  11 d           5.103 -10.986  -0.730  0.00  0.00     0.014 A 
ATOM     14  C12  11 d           5.905 -11.296   0.379  0.00  0.00     0.001 A 
ATOM     15  C13  11 d           7.244 -10.890   0.417  0.00  0.00     0.000 A 
ATOM     16  C14  11 d           7.784 -10.173  -0.656  0.00  0.00     0.001 A 
ATOM     17  C15  11 d           6.986  -9.861  -1.766  0.00  0.00     0.014 A 
ATOM     18  C16  11 d           3.449 -10.253  -3.201  0.00  0.00     0.066 A 
ATOM     19  N3   11 d           5.399  -8.133  -6.155  0.00  0.00    -0.231 N 
ATOM     20  H12  11 d           4.916  -7.867  -6.981  0.00  0.00     0.174 HD
ATOM     21  H13  11 d           6.355  -7.888  -6.044  0.00  0.00     0.174 HD
ENDROOT
TORSDOF 0
