REMARK  1 active torsions:
REMARK  status: ('A' for Active; 'I' for Inactive)
REMARK    1  A    between atoms: C1_1  and  C2_2 
ROOT
ATOM      1  C2   11 d           1.430 -10.202  -4.587  0.00  0.00     0.041 A 
ATOM      2  C3   11 d           0.875 -10.464  -5.854  0.00  0.00     0.020 A 
ATOM      3  C4   11 d          -0.484 -10.774  -5.985  0.00  0.00     0.030 A 
ATOM      4  C5   11 d          -1.324 -10.819  -4.854  0.00  0.00     0.030 A 
ATOM      5  N1   11 d          -2.666 -11.175  -4.987  0.00  0.00    -0.378 N 
ATOM      6  C6   11 d          -3.223 -12.198  -4.173  0.00  0.00     0.150 C 
ATOM      7  C7   11 d          -3.741 -13.301  -5.101  0.00  0.00     0.252 C 
ATOM      8  N2   11 d          -4.644 -12.740  -6.154  0.00  0.00    -0.072 N 
ATOM      9  C8   11 d          -4.028 -11.601  -6.904  0.00  0.00     0.252 C 
ATOM     10  C9   11 d          -3.502 -10.531  -5.940  0.00  0.00     0.150 C 
ATOM     11  C10  11 d          -0.772 -10.534  -3.588  0.00  0.00     0.030 A 
ATOM     12  C11  11 d           0.591 -10.234  -3.456  0.00  0.00     0.020 A 
ATOM     13  H7   11 d          -4.897 -13.518  -6.847  0.00  0.00     0.277 HD
ATOM     14  H8   11 d          -5.556 -12.410  -5.696  0.00  0.00     0.277 HD
ENDROOT
BRANCH   1  15
ATOM     15  C1   11 d           2.878  -9.908  -4.449  0.00  0.00     0.209 C 
ATOM     16  O1   11 d           3.651  -9.877  -5.506  0.00  0.00    -0.644 OA
ATOM     17  O2   11 d           3.399  -9.686  -3.268  0.00  0.00    -0.644 OA
ENDBRANCH   1  15
TORSDOF 1
