REMARK  3 active torsions:
REMARK  status: ('A' for Active; 'I' for Inactive)
REMARK    1  A    between atoms: C1_1  and  N1_2 
REMARK    2  A    between atoms: N1_2  and  N2_3 
REMARK    3  A    between atoms: N2_3  and  C2_4 
ROOT
ATOM      1  C2   11 d           0.214  -4.639  -3.480  0.00  0.00     0.110 C 
ATOM      2  C3   11 d           0.271  -5.524  -2.225  0.00  0.00     0.050 C 
ATOM      3  C4   11 d          -0.585  -4.885  -1.120  0.00  0.00     0.016 C 
ATOM      4  C5   11 d          -0.053  -3.481  -0.789  0.00  0.00    -0.013 C 
ATOM      5  C6   11 d          -0.117  -2.603  -2.051  0.00  0.00     0.016 C 
ATOM      6  C7   11 d           0.749  -3.211  -3.182  0.00  0.00     0.050 C 
ATOM      7  C8   11 d           2.210  -3.349  -2.685  0.00  0.00     0.016 C 
ATOM      8  C9   11 d           2.272  -4.226  -1.421  0.00  0.00    -0.013 C 
ATOM      9  C10  11 d           1.727  -5.626  -1.747  0.00  0.00     0.016 C 
ATOM     10  C11  11 d           1.407  -3.589  -0.320  0.00  0.00     0.009 C 
ENDROOT
BRANCH   1  11
ATOM     11  N2   11 d          -0.227  -4.974  -4.716  0.00  0.00    -0.255 NA
BRANCH  11  12
ATOM     12  N1   11 d          -0.667  -5.310  -5.952  0.00  0.00    -0.223 NA
BRANCH  12  13
ATOM     13  C1   11 d          -1.107  -5.646  -7.187  0.00  0.00     0.260 A 
ATOM     14  S1   11 d          -2.764  -5.869  -7.524  0.00  0.00    -0.066 SA
ATOM     15  C12  11 d          -2.423  -6.199  -9.181  0.00  0.00     0.186 A 
ATOM     16  C13  11 d          -0.940  -6.113  -9.428  0.00  0.00     0.234 A 
ATOM     17  O1   11 d          -0.364  -6.262 -10.484  0.00  0.00    -0.272 OA
ATOM     18  N3   11 d          -0.291  -5.827  -8.229  0.00  0.00    -0.293 N 
ATOM     19  H    11 d           0.786  -5.757  -8.148  0.00  0.00     0.172 HD
ENDBRANCH  12  13
ENDBRANCH  11  12
ENDBRANCH   1  11
TORSDOF 3
