REMARK  4 active torsions:
REMARK  status: ('A' for Active; 'I' for Inactive)
REMARK    1  A    between atoms: C3_5  and  O4_16 
REMARK    2  A    between atoms: C4_6  and  O3_7 
REMARK    3  A    between atoms: O3_7  and  C5_8 
REMARK    4  A    between atoms: O4_16  and  C13_17 
ROOT
ATOM      1  C1   11 d          -2.176   5.483   0.268  0.00  0.00     0.288 A 
ATOM      2  O1   11 d          -1.950   5.642   1.492  0.00  0.00    -0.260 OA
ATOM      3  O2   11 d          -2.709   6.465  -0.433  0.00  0.00    -0.272 OA
ATOM      4  C2   11 d          -2.978   6.388  -1.728  0.00  0.00     0.126 A 
ATOM      5  C3   11 d          -3.545   7.500  -2.396  0.00  0.00     0.137 A 
ATOM      6  C4   11 d          -3.822   7.413  -3.780  0.00  0.00     0.104 A 
ATOM      7  C7   11 d          -3.559   6.221  -4.472  0.00  0.00     0.040 A 
ATOM      8  C8   11 d          -2.982   5.126  -3.819  0.00  0.00     0.018 A 
ATOM      9  C9   11 d          -2.683   5.192  -2.442  0.00  0.00     0.007 A 
ATOM     10  C10  11 d          -2.104   4.110  -1.727  0.00  0.00    -0.043 A 
ATOM     11  C11  11 d          -1.855   4.269  -0.351  0.00  0.00     0.090 A 
ATOM     12  C12  11 d          -1.777   2.789  -2.380  0.00  0.00     0.049 C 
ENDROOT
BRANCH   5  13
ATOM     13  O4   11 d          -3.962   8.644  -1.646  0.00  0.00    -0.346 OA
BRANCH  13  14
ATOM     14  C13  11 d          -2.866   9.577  -1.464  0.00  0.00     0.171 C 
ATOM     15  C14  11 d          -3.106  10.354  -0.180  0.00  0.00     0.034 C 
ENDBRANCH  13  14
ENDBRANCH   5  13
BRANCH   6  16
ATOM     16  O3   11 d          -4.483   8.469  -4.473  0.00  0.00    -0.349 OA
BRANCH  16  17
ATOM     17  C5   11 d          -3.518   9.284  -5.186  0.00  0.00     0.171 C 
ATOM     18  C6   11 d          -4.172  10.610  -5.539  0.00  0.00     0.034 C 
ENDBRANCH  16  17
ENDBRANCH   6  16
TORSDOF 4
