REMARK  0 active torsions:
REMARK  status: ('A' for Active; 'I' for Inactive)
ROOT
ATOM      1  C1   11 d          -5.647   5.845  -1.258  0.00  0.00     0.237 C 
ATOM      2  N1   11 d          -5.337   5.936   0.150  0.00  0.00    -0.252 N 
ATOM      3  C2   11 d          -4.532   4.770   0.431  0.00  0.00     0.237 C 
ATOM      4  O1   11 d          -3.955   4.487   1.536  0.00  0.00    -0.272 OA
ATOM      5  C3   11 d          -4.587   3.836  -0.724  0.00  0.00     0.106 C 
ATOM      6  C4   11 d          -4.797   4.795  -1.888  0.00  0.00     0.110 C 
ATOM      7  C5   11 d          -4.758   4.015  -3.259  0.00  0.00     0.024 C 
ATOM      8  C6   11 d          -3.244   3.684  -3.378  0.00  0.00    -0.037 A 
ATOM      9  C7   11 d          -2.726   2.967  -2.252  0.00  0.00    -0.041 A 
ATOM     10  C8   11 d          -3.769   2.585  -1.200  0.00  0.00     0.067 C 
ATOM     11  C9   11 d          -4.811   1.833  -2.041  0.00  0.00    -0.041 A 
ATOM     12  C10  11 d          -5.379   2.605  -3.103  0.00  0.00    -0.037 A 
ATOM     13  C11  11 d          -6.393   2.039  -3.898  0.00  0.00     0.009 A 
ATOM     14  C12  11 d          -6.817   0.722  -3.654  0.00  0.00     0.001 A 
ATOM     15  C13  11 d          -6.240  -0.035  -2.619  0.00  0.00     0.001 A 
ATOM     16  C14  11 d          -5.237   0.517  -1.806  0.00  0.00     0.008 A 
ATOM     17  C15  11 d          -1.365   2.639  -2.182  0.00  0.00     0.008 A 
ATOM     18  C16  11 d          -0.512   3.009  -3.234  0.00  0.00     0.001 A 
ATOM     19  C17  11 d          -1.014   3.704  -4.348  0.00  0.00     0.001 A 
ATOM     20  C18  11 d          -2.375   4.047  -4.424  0.00  0.00     0.009 A 
ATOM     21  C19  11 d          -5.330   4.853  -4.413  0.00  0.00     0.027 C 
ATOM     22  C20  11 d          -5.756   7.004   1.106  0.00  0.00     0.045 A 
ATOM     23  C21  11 d          -5.395   6.957   2.477  0.00  0.00     0.032 A 
ATOM     24  C22  11 d          -5.784   7.964   3.373  0.00  0.00     0.026 A 
ATOM     25  C23  11 d          -6.546   9.049   2.927  0.00  0.00     0.034 A 
ATOM     26 Cl1   11 d          -7.036  10.327   4.063  0.00  0.00    -0.084 Cl
ATOM     27  C24  11 d          -6.920   9.121   1.581  0.00  0.00     0.026 A 
ATOM     28  C25  11 d          -6.532   8.115   0.684  0.00  0.00     0.032 A 
ATOM     29  O2   11 d          -6.419   6.619  -1.921  0.00  0.00    -0.272 OA
ENDROOT
TORSDOF 0
