REMARK  2 active torsions:
REMARK  status: ('A' for Active; 'I' for Inactive)
REMARK    1  A    between atoms: C1_1  and  N3_15 
REMARK    2  A    between atoms: C12_16  and  C13_17 
ROOT
ATOM      1  C1   11 d          -1.950   3.028   0.072  0.00  0.00     0.150 A 
ATOM      2  C2   11 d          -3.170   3.136   0.706  0.00  0.00     0.297 A 
ATOM      3  N1   11 d          -2.983   3.105   2.045  0.00  0.00    -0.217 N 
ATOM      4  C3   11 d          -4.046   3.179   3.019  0.00  0.00     0.060 A 
ATOM      5  C4   11 d          -4.000   4.126   4.061  0.00  0.00     0.031 A 
ATOM      6  C5   11 d          -5.035   4.192   5.007  0.00  0.00     0.002 A 
ATOM      7  C6   11 d          -6.127   3.315   4.916  0.00  0.00     0.000 A 
ATOM      8  C7   11 d          -6.184   2.373   3.879  0.00  0.00     0.002 A 
ATOM      9  C8   11 d          -5.149   2.306   2.933  0.00  0.00     0.031 A 
ATOM     10  N2   11 d          -1.693   3.009   2.286  0.00  0.00    -0.289 N 
ATOM     11  C9   11 d          -1.014   2.930   1.104  0.00  0.00     0.059 A 
ATOM     12  C10  11 d           0.479   3.035   0.952  0.00  0.00     0.072 C 
ATOM     13  C11  11 d          -1.081   2.845   3.611  0.00  0.00     0.178 C 
ATOM     14  O1   11 d          -4.281   3.255   0.127  0.00  0.00    -0.264 OA
ENDROOT
BRANCH   1  15
ATOM     15  N3   11 d          -1.755   3.054  -1.364  0.00  0.00    -0.253 NA
ATOM     16  C12  11 d          -0.859   2.254  -1.891  0.00  0.00     0.129 C 
BRANCH  16  17
ATOM     17  C13  11 d          -0.610   2.244  -3.354  0.00  0.00    -0.019 A 
ATOM     18  C14  11 d          -1.292   3.117  -4.230  0.00  0.00     0.013 A 
ATOM     19  C15  11 d          -1.043   3.077  -5.610  0.00  0.00     0.001 A 
ATOM     20  C16  11 d          -0.112   2.167  -6.130  0.00  0.00     0.000 A 
ATOM     21  C17  11 d           0.572   1.296  -5.270  0.00  0.00     0.001 A 
ATOM     22  C18  11 d           0.325   1.335  -3.889  0.00  0.00     0.013 A 
ENDBRANCH  16  17
ENDBRANCH   1  15
TORSDOF 2
