REMARK  3 active torsions:
REMARK  status: ('A' for Active; 'I' for Inactive)
REMARK    1  A    between atoms: C1_1  and  C2_2 
REMARK       I    between atoms: C2_2  and  N1_4 
REMARK    2  A    between atoms: C5_8  and  N2_9 
REMARK       I    between atoms: N2_9  and  C6_10 
REMARK    3  A    between atoms: C6_10  and  C7_11 
ROOT
ATOM      1  N2   11 d          -1.424   6.292   3.240  0.00  0.00    -0.316 N 
ATOM      2  C6   11 d          -2.220   5.714   2.212  0.00  0.00     0.257 C 
ATOM      3  O4   11 d          -1.696   4.920   1.353  0.00  0.00    -0.267 OA
ATOM      4  H3   11 d          -1.866   6.954   3.961  0.00  0.00     0.169 HD
ENDROOT
BRANCH   2   5
ATOM      5  C7   11 d          -3.667   6.046   2.136  0.00  0.00     0.047 A 
ATOM      6  C8   11 d          -4.700   5.082   2.050  0.00  0.00     0.008 A 
ATOM      7  C9   11 d          -6.041   5.542   1.972  0.00  0.00     0.068 A 
ATOM      8  C22  11 d          -4.460   3.688   2.067  0.00  0.00     0.015 A 
ATOM      9  N3   11 d          -6.309   6.878   1.975  0.00  0.00    -0.247 NA
ATOM     10  C19  11 d          -7.104   4.628   1.900  0.00  0.00     0.032 A 
ATOM     11  C10  11 d          -5.340   7.839   2.055  0.00  0.00     0.069 A 
ATOM     12  C11  11 d          -5.742   9.284   2.029  0.00  0.00    -0.004 A 
ATOM     13  C18  11 d          -3.998   7.415   2.137  0.00  0.00     0.050 A 
ATOM     14  C12  11 d          -4.817  10.339   2.265  0.00  0.00     0.053 A 
ATOM     15  C17  11 d          -7.094   9.633   1.752  0.00  0.00     0.017 A 
ATOM     16  C13  11 d          -5.253  11.665   2.204  0.00  0.00     0.105 A 
ATOM     17  C14  11 d          -6.552  11.977   1.928  0.00  0.00     0.105 A 
ATOM     18  O3   11 d          -4.457  12.806   2.374  0.00  0.00    -0.323 OA
ATOM     19  O2   11 d          -6.766  13.362   1.881  0.00  0.00    -0.323 OA
ATOM     20  C16  11 d          -7.502  10.980   1.696  0.00  0.00     0.040 A 
ATOM     21  C15  11 d          -5.417  13.878   2.115  0.00  0.00     0.352 A 
ATOM     22  C20  11 d          -6.848   3.250   1.910  0.00  0.00     0.002 A 
ATOM     23  C21  11 d          -5.530   2.782   1.995  0.00  0.00     0.001 A 
ENDBRANCH   2   5
BRANCH   1  24
ATOM     24  C5   11 d           0.006   6.026   3.363  0.00  0.00     0.093 A 
ATOM     25  S1   11 d           0.617   4.686   3.599  0.00  0.00    -0.075 SA
ATOM     26  C4   11 d           2.086   4.977   3.696  0.00  0.00    -0.008 A 
ATOM     27  C3   11 d           2.280   6.355   3.483  0.00  0.00    -0.026 A 
ATOM     28  C23  11 d           3.105   3.875   3.841  0.00  0.00     0.046 C 
ATOM     29  C1   11 d           1.020   6.978   3.311  0.00  0.00     0.073 A 
ATOM     30  C28  11 d           3.582   7.136   3.574  0.00  0.00     0.041 C 
ATOM     31  C27  11 d           4.763   6.546   4.359  0.00  0.00     0.005 C 
ATOM     32  C26  11 d           4.426   5.993   5.760  0.00  0.00     0.000 C 
ATOM     33  C25  11 d           4.608   4.472   5.881  0.00  0.00     0.000 C 
ATOM     34  C24  11 d           3.468   3.616   5.312  0.00  0.00     0.005 C 
BRANCH  29  35
ATOM     35  C2   11 d           0.744   8.423   3.086  0.00  0.00     0.252 C 
ATOM     36  O1   11 d           1.319   9.312   3.804  0.00  0.00    -0.268 OA
ATOM     37  N1   11 d          -0.158   8.848   2.083  0.00  0.00    -0.366 N 
ATOM     38  H1   11 d          -0.658   8.139   1.452  0.00  0.00     0.159 HD
ATOM     39  H2   11 d          -0.345   9.897   1.950  0.00  0.00     0.159 HD
ENDBRANCH  29  35
ENDBRANCH   1  24
TORSDOF 3
