REMARK  3 active torsions:
REMARK  status: ('A' for Active; 'I' for Inactive)
REMARK    1  A    between atoms: C1_1  and  C23_26 
REMARK    2  A    between atoms: C2_2  and  C3_3 
REMARK    3  A    between atoms: N2_15  and  C16_19 
ROOT
ATOM      1  C1   11 d          10.774  -2.087  -2.095  0.00  0.00     0.048 A 
ATOM      2  C2   11 d          10.454  -2.817  -0.953  0.00  0.00     0.048 A 
ATOM      3  C5   11 d           9.897  -4.019  -1.386  0.00  0.00     0.028 A 
ATOM      4  N1   11 d           9.781  -3.995  -2.748  0.00  0.00    -0.318 N 
ATOM      5  C6   11 d          10.405  -2.862  -3.199  0.00  0.00     0.028 A 
ATOM      6  C7   11 d          10.559  -2.414  -4.631  0.00  0.00     0.070 C 
ATOM      7  C8   11 d           9.061  -5.000  -3.539  0.00  0.00     0.040 A 
ATOM      8  C9   11 d           9.408  -5.324  -4.878  0.00  0.00     0.044 A 
ATOM      9  C10  11 d           8.609  -6.229  -5.590  0.00  0.00     0.005 A 
ATOM     10  C11  11 d           8.634  -6.591  -6.923  0.00  0.00     0.003 A 
ATOM     11  C12  11 d           7.632  -7.535  -7.105  0.00  0.00     0.046 A 
ATOM     12  N2   11 d           6.994  -7.771  -5.921  0.00  0.00    -0.346 N 
ATOM     13  C13  11 d           7.555  -6.918  -5.007  0.00  0.00     0.046 A 
ATOM     14  C14  11 d           7.194  -6.628  -3.684  0.00  0.00     0.033 A 
ATOM     15  C15  11 d           7.923  -5.649  -2.981  0.00  0.00     0.032 A 
ATOM     16  C18  11 d           7.382  -8.063  -8.387  0.00  0.00     0.030 A 
ATOM     17  C19  11 d           8.152  -7.596  -9.470  0.00  0.00     0.002 A 
ATOM     18  C20  11 d           9.162  -6.629  -9.272  0.00  0.00     0.001 A 
ATOM     19  C21  11 d           9.418  -6.121  -7.982  0.00  0.00     0.014 A 
ATOM     20  C22  11 d           9.781  -5.244  -0.514  0.00  0.00     0.070 C 
ENDROOT
BRANCH   2  21
ATOM     21  C3   11 d          10.591  -2.383   0.470  0.00  0.00     0.158 C 
ATOM     22  O1   11 d          11.444  -1.520   0.788  0.00  0.00    -0.293 OA
ATOM     23  C4   11 d           9.578  -2.784   1.507  0.00  0.00     0.097 C 
ENDBRANCH   2  21
BRANCH   1  24
ATOM     24  C23  11 d          11.352  -0.718  -2.127  0.00  0.00     0.158 C 
ATOM     25  O2   11 d          12.433  -0.482  -1.532  0.00  0.00    -0.293 OA
ATOM     26  C24  11 d          10.599   0.433  -2.728  0.00  0.00     0.097 C 
ENDBRANCH   1  24
BRANCH  12  27
ATOM     27  C16  11 d           5.984  -8.832  -5.711  0.00  0.00     0.125 C 
ATOM     28  C17  11 d           6.039  -9.570  -4.370  0.00  0.00     0.027 C 
ENDBRANCH  12  27
TORSDOF 3
