REMARK  2 active torsions:
REMARK  status: ('A' for Active; 'I' for Inactive)
REMARK    1  A    between atoms: C2_2  and  O4_16 
REMARK    2  A    between atoms: C3_3  and  N1_4 
ROOT
ATOM      1  C1   11 d           3.113  -6.152  -4.055  0.00  0.00     0.173 A 
ATOM      2  C2   11 d           2.201  -6.672  -3.110  0.00  0.00     0.146 A 
ATOM      3  C3   11 d           0.892  -7.009  -3.525  0.00  0.00     0.141 A 
ATOM      4  C4   11 d           0.531  -6.785  -4.870  0.00  0.00     0.057 A 
ATOM      5  C5   11 d           1.455  -6.243  -5.770  0.00  0.00     0.105 A 
ATOM      6  N2   11 d           2.732  -5.929  -5.367  0.00  0.00    -0.271 N 
ATOM      7  C6   11 d           3.643  -5.392  -6.254  0.00  0.00     0.255 A 
ATOM      8  O3   11 d           3.322  -5.155  -7.448  0.00  0.00    -0.268 OA
ATOM      9  C7   11 d           4.945  -5.090  -5.840  0.00  0.00     0.101 A 
ATOM     10  C8   11 d           5.318  -5.369  -4.522  0.00  0.00     0.038 A 
ATOM     11  N3   11 d           4.385  -5.855  -3.660  0.00  0.00    -0.233 NA
ATOM     12  C9   11 d           6.660  -4.964  -3.993  0.00  0.00     0.070 C 
ENDROOT
BRANCH   3  13
ATOM     13  N1   11 d          -0.025  -7.546  -2.621  0.00  0.00    -0.113 N 
ATOM     14  O1   11 d          -0.939  -8.119  -3.008  0.00  0.00    -0.532 OA
ATOM     15  O2   11 d          -0.070  -7.099  -1.442  0.00  0.00    -0.532 OA
ENDBRANCH   3  13
BRANCH   2  16
ATOM     16  O4   11 d           2.646  -6.984  -1.796  0.00  0.00    -0.355 OA
ATOM     17  H7   11 d           2.517  -6.115  -1.247  0.00  0.00     0.218 HD
ENDBRANCH   2  16
TORSDOF 2
