REMARK  6 active torsions:
REMARK  status: ('A' for Active; 'I' for Inactive)
REMARK       I    between atoms: C1_1  and  N1_3 
REMARK    1  A    between atoms: C1_1  and  C8_11 
REMARK    2  A    between atoms: N1_3  and  C2_4 
REMARK    3  A    between atoms: C8_11  and  C9_12 
REMARK    4  A    between atoms: C9_12  and  C10_13 
REMARK    5  A    between atoms: C10_13  and  C11_14 
REMARK    6  A    between atoms: C11_14  and  C12_15 
ROOT
ATOM      1  C1   11 d           3.740  -9.029  -5.419  0.00  0.00     0.222 C 
ATOM      2  O1   11 d           4.970  -8.683  -5.342  0.00  0.00    -0.273 OA
ATOM      3  N1   11 d           3.096  -9.761  -4.372  0.00  0.00    -0.327 N 
ATOM      4  H1   11 d           2.061 -10.004  -4.531  0.00  0.00     0.169 HD
ENDROOT
BRANCH   3   5
ATOM      5  C2   11 d           3.694 -10.220  -3.098  0.00  0.00     0.034 A 
ATOM      6  C3   11 d           2.853 -10.931  -2.215  0.00  0.00     0.031 A 
ATOM      7  C4   11 d           3.328 -11.405  -0.983  0.00  0.00     0.020 A 
ATOM      8  C5   11 d           4.658 -11.178  -0.610  0.00  0.00     0.006 A 
ATOM      9  I1   11 d           5.365 -11.880   1.213  0.00  0.00    -0.045 I 
ATOM     10  C6   11 d           5.510 -10.476  -1.471  0.00  0.00     0.020 A 
ATOM     11  C7   11 d           5.036  -9.999  -2.704  0.00  0.00     0.031 A 
ENDBRANCH   3   5
BRANCH   1  12
ATOM     12  C8   11 d           2.937  -8.659  -6.645  0.00  0.00     0.103 C 
BRANCH  12  13
ATOM     13  C9   11 d           3.714  -7.870  -7.710  0.00  0.00     0.010 C 
BRANCH  13  14
ATOM     14  C10  11 d           2.848  -7.521  -8.928  0.00  0.00     0.004 C 
BRANCH  14  15
ATOM     15  C11  11 d           3.642  -6.740  -9.986  0.00  0.00     0.026 C 
BRANCH  15  16
ATOM     16  C12  11 d           2.907  -6.321 -11.240  0.00  0.00    -0.037 C 
ATOM     17  C13  11 d           1.625  -6.588 -11.527  0.00  0.00     0.007 C 
ENDBRANCH  15  16
ENDBRANCH  14  15
ENDBRANCH  13  14
ENDBRANCH  12  13
ENDBRANCH   1  12
TORSDOF 6
