REMARK  3 active torsions:
REMARK  status: ('A' for Active; 'I' for Inactive)
REMARK    1  A    between atoms: N2_11  and  N3_12 
REMARK       I    between atoms: N3_12  and  C9_13 
REMARK    2  A    between atoms: C9_13  and  O3_15 
REMARK    3  A    between atoms: O3_15  and  C10_16 
ROOT
ATOM      1  C1   11 d          -5.044  -6.868   2.275  0.00  0.00     0.157 A 
ATOM      2  C2   11 d          -3.848  -6.021   2.116  0.00  0.00     0.277 A 
ATOM      3  O1   11 d          -3.563  -4.981   2.807  0.00  0.00    -0.266 OA
ATOM      4  N1   11 d          -3.035  -6.510   1.080  0.00  0.00    -0.321 N 
ATOM      5  C3   11 d          -3.707  -7.683   0.561  0.00  0.00     0.048 A 
ATOM      6  C4   11 d          -4.903  -7.927   1.242  0.00  0.00     0.027 A 
ATOM      7  C5   11 d          -5.720  -9.008   0.860  0.00  0.00     0.016 A 
ATOM      8  C6   11 d          -5.300  -9.841  -0.196  0.00  0.00     0.001 A 
ATOM      9  C7   11 d          -4.085  -9.591  -0.866  0.00  0.00     0.002 A 
ATOM     10  C8   11 d          -3.279  -8.502  -0.489  0.00  0.00     0.030 A 
ATOM     11  N2   11 d          -5.992  -6.644   3.159  0.00  0.00    -0.164 NA
ATOM     12  H1   11 d          -2.103  -6.105   0.735  0.00  0.00     0.169 HD
ENDROOT
BRANCH  11  13
ATOM     13  N3   11 d          -7.042  -7.557   3.268  0.00  0.00    -0.222 N 
ATOM     14  C9   11 d          -8.363  -7.143   2.982  0.00  0.00     0.381 C 
ATOM     15  O2   11 d          -8.604  -5.937   2.616  0.00  0.00    -0.237 OA
ATOM     16  H6   11 d          -6.838  -8.566   3.573  0.00  0.00     0.194 HD
BRANCH  14  17
ATOM     17  O3   11 d          -9.418  -8.091   3.114  0.00  0.00    -0.303 OA
BRANCH  17  18
ATOM     18  C10  11 d         -10.582  -7.511   3.760  0.00  0.00     0.176 C 
ATOM     19  C11  11 d         -11.520  -8.624   4.194  0.00  0.00     0.034 C 
ENDBRANCH  17  18
ENDBRANCH  14  17
ENDBRANCH  11  13
TORSDOF 3
