REMARK  6 active torsions:
REMARK  status: ('A' for Active; 'I' for Inactive)
REMARK    1  A    between atoms: C3_3  and  N1_4 
REMARK    2  A    between atoms: N1_4  and  C4_5 
REMARK    3  A    between atoms: C4_5  and  C5_6 
REMARK    4  A    between atoms: C5_6  and  C6_7 
REMARK    5  A    between atoms: C6_7  and  C7_8 
REMARK    6  A    between atoms: C20_22  and  N3_23 
ROOT
ATOM      1  C1   11 d           0.469   7.058  -2.967  0.00  0.00    -0.019 A 
ATOM      2  C2   11 d           1.580   7.095  -2.128  0.00  0.00     0.073 A 
ATOM      3  C3   11 d           2.935   7.634  -2.534  0.00  0.00     0.238 C 
ATOM      4  C14  11 d           2.970   7.803  -4.083  0.00  0.00     0.040 C 
ATOM      5  C15  11 d           1.694   8.457  -4.657  0.00  0.00     0.007 C 
ATOM      6  C16  11 d           0.426   7.638  -4.352  0.00  0.00     0.042 C 
ATOM      7  N2   11 d           1.294   6.466  -0.962  0.00  0.00    -0.250 NA
ATOM      8  C17  11 d          -0.001   6.083  -1.030  0.00  0.00     0.068 A 
ATOM      9  C18  11 d          -0.539   6.450  -2.248  0.00  0.00     0.003 A 
ATOM     10  C19  11 d          -1.868   6.170  -2.586  0.00  0.00     0.050 A 
ATOM     11  C20  11 d          -2.686   5.486  -1.645  0.00  0.00     0.103 A 
ATOM     12  C21  11 d          -2.113   5.107  -0.395  0.00  0.00     0.038 A 
ATOM     13  C22  11 d          -0.770   5.404  -0.081  0.00  0.00     0.035 A 
ENDROOT
BRANCH   3  14
ATOM     14  N1   11 d           3.261   8.900  -1.769  0.00  0.00    -0.061 N 
ATOM     15  H2   11 d           2.971   9.762  -2.336  0.00  0.00     0.278 HD
ATOM     16  H3   11 d           2.662   8.923  -0.878  0.00  0.00     0.278 HD
BRANCH  14  17
ATOM     17  C4   11 d           4.698   9.054  -1.329  0.00  0.00     0.183 C 
ATOM     18  C13  11 d           5.683   9.117  -2.518  0.00  0.00     0.040 C 
BRANCH  17  19
ATOM     19  C5   11 d           4.871  10.312  -0.432  0.00  0.00     0.037 C 
BRANCH  19  20
ATOM     20  C6   11 d           6.063  10.227   0.538  0.00  0.00     0.040 C 
BRANCH  20  21
ATOM     21  C7   11 d           6.308  11.552   1.216  0.00  0.00    -0.058 A 
ATOM     22  C8   11 d           7.306  12.424   0.729  0.00  0.00     0.007 A 
ATOM     23  C9   11 d           7.613  13.609   1.416  0.00  0.00     0.001 A 
ATOM     24  C10  11 d           6.945  13.921   2.609  0.00  0.00     0.000 A 
ATOM     25  C11  11 d           5.977  13.044   3.122  0.00  0.00     0.001 A 
ATOM     26  C12  11 d           5.672  11.856   2.438  0.00  0.00     0.007 A 
ENDBRANCH  20  21
ENDBRANCH  19  20
ENDBRANCH  17  19
ENDBRANCH  14  17
ENDBRANCH   3  14
BRANCH  11  27
ATOM     27  N3   11 d          -4.016   5.182  -1.940  0.00  0.00    -0.116 N 
ATOM     28  O1   11 d          -4.500   5.564  -2.905  0.00  0.00    -0.532 OA
ATOM     29  O2   11 d          -4.759   4.632  -1.080  0.00  0.00    -0.532 OA
ENDBRANCH  11  27
TORSDOF 6
