REMARK  1 active torsions:
REMARK  status: ('A' for Active; 'I' for Inactive)
REMARK    1  A    between atoms: C4_4  and  N1_17 
ROOT
ATOM      1  C1   11 d          -6.552   0.536  -4.819  0.00  0.00     0.196 A 
ATOM      2  C2   11 d          -7.377   1.358  -3.857  0.00  0.00     0.053 A 
ATOM      3  C3   11 d          -7.981   0.710  -2.757  0.00  0.00     0.077 A 
ATOM      4  C4   11 d          -8.720   1.428  -1.804  0.00  0.00     0.070 A 
ATOM      5  C5   11 d          -8.908   2.797  -1.998  0.00  0.00     0.062 A 
ATOM      6 Cl1   11 d          -9.861   3.696  -0.827  0.00  0.00    -0.082 Cl
ATOM      7  C6   11 d          -8.351   3.458  -3.107  0.00  0.00     0.042 A 
ATOM      8  C7   11 d          -7.568   2.737  -4.040  0.00  0.00     0.033 A 
ATOM      9  C8   11 d          -6.960   3.452  -5.226  0.00  0.00     0.194 A 
ATOM     10  C9   11 d          -6.064   2.650  -6.136  0.00  0.00     0.029 A 
ATOM     11  C10  11 d          -5.865   1.270  -5.950  0.00  0.00     0.029 A 
ATOM     12  C11  11 d          -5.023   0.556  -6.841  0.00  0.00     0.016 A 
ATOM     13  C12  11 d          -4.372   1.238  -7.879  0.00  0.00     0.001 A 
ATOM     14  C13  11 d          -4.547   2.608  -8.045  0.00  0.00     0.001 A 
ATOM     15  C14  11 d          -5.428   3.303  -7.212  0.00  0.00     0.016 A 
ATOM     16  O1   11 d          -7.196   4.625  -5.420  0.00  0.00    -0.287 OA
ATOM     17 Cl2   11 d          -7.793  -1.029  -2.596  0.00  0.00    -0.081 Cl
ATOM     18  O2   11 d          -6.456  -0.663  -4.674  0.00  0.00    -0.287 OA
ENDROOT
BRANCH   4  19
ATOM     19  N1   11 d          -9.280   0.781  -0.644  0.00  0.00    -0.396 N 
ATOM     20  H    11 d          -9.133  -0.281  -0.493  0.00  0.00     0.156 HD
ATOM     21  H    11 d          -9.846   1.358   0.077  0.00  0.00     0.156 HD
ENDBRANCH   4  19
TORSDOF 1
