REMARK  3 active torsions:
REMARK  status: ('A' for Active; 'I' for Inactive)
REMARK    1  A    between atoms: C4_6  and  S1_7 
REMARK    2  A    between atoms: S1_7  and  C5_8 
REMARK    3  A    between atoms: C5_8  and  C6_9 
ROOT
ATOM      1  C1   11 d           4.734   4.314   2.253  0.00  0.00     0.245 A 
ATOM      2  N1   11 d           5.375   4.059   1.009  0.00  0.00    -0.251 N 
ATOM      3  C2   11 d           4.562   3.061   0.410  0.00  0.00     0.232 A 
ATOM      4  O1   11 d           4.779   2.533  -0.735  0.00  0.00    -0.273 OA
ATOM      5  C3   11 d           3.393   2.642   1.232  0.00  0.00     0.128 A 
ATOM      6  C4   11 d           3.500   3.499   2.495  0.00  0.00     0.149 A 
ATOM      7  C7   11 d           6.615   4.695   0.458  0.00  0.00     0.045 A 
ATOM      8  C8   11 d           7.142   4.329  -0.809  0.00  0.00     0.032 A 
ATOM      9  C9   11 d           8.304   4.923  -1.325  0.00  0.00     0.026 A 
ATOM     10  C10  11 d           8.979   5.904  -0.592  0.00  0.00     0.034 A 
ATOM     11 Cl1   11 d          10.453   6.656  -1.247  0.00  0.00    -0.084 Cl
ATOM     12  C11  11 d           8.487   6.289   0.658  0.00  0.00     0.026 A 
ATOM     13  C12  11 d           7.325   5.695   1.175  0.00  0.00     0.032 A 
ATOM     14  O4   11 d           5.156   5.152   3.123  0.00  0.00    -0.271 OA
ENDROOT
BRANCH   6  15
ATOM     15  S1   11 d           1.995   4.547   2.701  0.00  0.00    -0.144 SA
BRANCH  15  16
ATOM     16  C5   11 d           2.075   4.696   4.539  0.00  0.00     0.187 C 
BRANCH  16  17
ATOM     17  C6   11 d           0.801   5.212   5.133  0.00  0.00     0.182 C 
ATOM     18  O2   11 d          -0.356   4.832   4.652  0.00  0.00    -0.647 OA
ATOM     19  O3   11 d           0.843   6.134   6.060  0.00  0.00    -0.647 OA
ENDBRANCH  16  17
ENDBRANCH  15  16
ENDBRANCH   6  15
TORSDOF 3
