REMARK  1 active torsions:
REMARK  status: ('A' for Active; 'I' for Inactive)
REMARK    1  A    between atoms: C8_9  and  O2_10 
ROOT
ATOM      1  C1   11 d           1.324  -4.850   5.927  0.00  0.00     0.037 C 
ATOM      2  C2   11 d           0.016  -4.275   5.444  0.00  0.00     0.160 C 
ATOM      3  O1   11 d          -0.030  -3.663   4.348  0.00  0.00    -0.293 OA
ATOM      4  C3   11 d          -1.285  -4.518   6.171  0.00  0.00     0.093 C 
ATOM      5  C4   11 d          -1.075  -5.279   7.494  0.00  0.00     0.031 C 
ATOM      6  C5   11 d          -0.606  -4.431   8.679  0.00  0.00    -0.053 A 
ATOM      7  C6   11 d          -0.735  -4.960   9.983  0.00  0.00     0.010 A 
ATOM      8  C7   11 d          -0.387  -4.196  11.110  0.00  0.00     0.037 A 
ATOM      9  C8   11 d           0.086  -2.885  10.958  0.00  0.00     0.068 A 
ATOM     10  C10  11 d           0.163  -2.325   9.676  0.00  0.00     0.037 A 
ATOM     11  C11  11 d          -0.168  -3.089   8.550  0.00  0.00     0.010 A 
ATOM     12  C12  11 d          -0.132  -6.466   7.208  0.00  0.00     0.067 C 
ATOM     13  C13  11 d           1.206  -6.053   6.600  0.00  0.00     0.022 C 
ATOM     14  N1   11 d           2.241  -6.959   6.838  0.00  0.00    -0.357 N 
ATOM     15  C14  11 d           3.240  -7.204   5.920  0.00  0.00     0.059 A 
ATOM     16  C15  11 d           4.018  -6.150   5.417  0.00  0.00     0.055 A 
ATOM     17  C16  11 d           5.038  -6.404   4.484  0.00  0.00     0.031 A 
ATOM     18  C17  11 d           5.271  -7.715   4.041  0.00  0.00     0.002 A 
ATOM     19  C18  11 d           4.500  -8.773   4.545  0.00  0.00     0.002 A 
ATOM     20  C19  11 d           3.491  -8.519   5.488  0.00  0.00     0.032 A 
ATOM     21  N2   11 d           3.827  -4.889   5.924  0.00  0.00    -0.375 N 
ATOM     22  C20  11 d           2.665  -4.120   5.611  0.00  0.00     0.155 C 
ATOM     23  C21  11 d           2.675  -2.725   6.294  0.00  0.00    -0.013 A 
ATOM     24  C22  11 d           1.824  -1.694   5.825  0.00  0.00     0.125 A 
ATOM     25  N3   11 d           1.788  -0.467   6.419  0.00  0.00    -0.272 NA
ATOM     26  C23  11 d           2.568  -0.158   7.486  0.00  0.00     0.116 A 
ATOM     27  C24  11 d           3.451  -1.112   7.991  0.00  0.00     0.020 A 
ATOM     28  C25  11 d           3.508  -2.380   7.397  0.00  0.00     0.012 A 
ATOM     29  H13  11 d           2.261  -7.472   7.690  0.00  0.00     0.166 HD
ATOM     30  H18  11 d           4.554  -4.564   6.508  0.00  0.00     0.160 HD
ENDROOT
BRANCH   9  31
ATOM     31  O2   11 d           0.341  -2.086  12.104  0.00  0.00    -0.356 OA
ATOM     32  C9   11 d           1.769  -2.017  12.344  0.00  0.00     0.210 C 
ENDBRANCH   9  31
TORSDOF 1
