REMARK  1 active torsions:
REMARK  status: ('A' for Active; 'I' for Inactive)
REMARK    1  A    between atoms: C15_23  and  C17_25 
ROOT
ATOM      1  C1   11 d          -1.999   7.691  -4.761  0.00  0.00     0.094 A 
ATOM      2  C2   11 d          -1.239   6.785  -5.489  0.00  0.00     0.104 A 
ATOM      3  C3   11 d          -0.032   7.196  -6.066  0.00  0.00     0.266 A 
ATOM      4  O1   11 d           0.681   6.403  -6.730  0.00  0.00    -0.267 OA
ATOM      5  N1   11 d           0.357   8.497  -5.894  0.00  0.00    -0.317 N 
ATOM      6  C4   11 d          -0.408   9.384  -5.177  0.00  0.00     0.210 A 
ATOM      7  N2   11 d          -1.586   8.980  -4.611  0.00  0.00    -0.242 NA
ATOM      8  S1   11 d          -1.923   5.448  -5.518  0.00  0.00    -0.062 SA
ATOM      9  C5   11 d          -3.155   5.738  -4.711  0.00  0.00     0.114 A 
ATOM     10  C6   11 d          -3.157   7.062  -4.282  0.00  0.00     0.037 A 
ATOM     11  C7   11 d          -4.235   7.553  -3.518  0.00  0.00    -0.028 A 
ATOM     12  C8   11 d          -5.279   6.648  -3.182  0.00  0.00     0.019 A 
ATOM     13  C9   11 d          -5.228   5.303  -3.663  0.00  0.00     0.136 A 
ATOM     14  N3   11 d          -4.160   4.883  -4.412  0.00  0.00    -0.223 NA
ATOM     15  N4   11 d          -6.216   4.356  -3.411  0.00  0.00    -0.361 N 
ATOM     16  C10  11 d          -6.890   3.727  -4.496  0.00  0.00     0.150 C 
ATOM     17  C11  11 d          -6.907   2.205  -4.306  0.00  0.00     0.187 C 
ATOM     18  O2   11 d          -7.436   1.856  -2.996  0.00  0.00    -0.388 OA
ATOM     19  C12  11 d          -6.622   2.448  -1.946  0.00  0.00     0.187 C 
ATOM     20  C13  11 d          -6.562   3.976  -2.083  0.00  0.00     0.150 C 
ATOM     21  C14  11 d          -6.472   7.146  -2.391  0.00  0.00     0.212 C 
ATOM     22  O3   11 d          -6.502   8.587  -2.176  0.00  0.00    -0.376 OA
ATOM     23  C15  11 d          -5.220   9.176  -1.807  0.00  0.00     0.061 C 
ATOM     24  C16  11 d          -4.237   8.967  -2.984  0.00  0.00     0.078 C 
ATOM     25  C19  11 d          -5.468  10.688  -1.642  0.00  0.00     0.046 C 
ATOM     26  H1   11 d           1.259   8.822  -6.323  0.00  0.00     0.170 HD
ENDROOT
BRANCH  23  27
ATOM     27  C17  11 d          -4.635   8.588  -0.484  0.00  0.00     0.033 C 
ATOM     28  C18  11 d          -5.564   8.638   0.732  0.00  0.00     0.008 C 
ENDBRANCH  23  27
TORSDOF 1
