REMARK  4 active torsions:
REMARK  status: ('A' for Active; 'I' for Inactive)
REMARK    1  A    between atoms: C1_1  and  C2_2 
REMARK       I    between atoms: C1_1  and  N3_15 
REMARK    2  A    between atoms: C3_3  and  N1_4 
REMARK    3  A    between atoms: C5_8  and  N2_9 
REMARK    4  A    between atoms: N3_15  and  C8_16 
ROOT
ATOM      1  C2   11 d           4.985  -8.847  -5.424  0.00  0.00     0.065 A 
ATOM      2  C3   11 d           5.625  -7.851  -6.211  0.00  0.00     0.120 A 
ATOM      3  C4   11 d           6.968  -7.510  -5.938  0.00  0.00     0.073 A 
ATOM      4  C5   11 d           7.694  -8.126  -4.894  0.00  0.00     0.105 A 
ATOM      5  C6   11 d           7.038  -9.105  -4.120  0.00  0.00     0.037 A 
ATOM      6  C7   11 d           5.711  -9.462  -4.383  0.00  0.00     0.022 A 
ENDROOT
BRANCH   1   7
ATOM      7  C1   11 d           3.587  -9.297  -5.702  0.00  0.00     0.258 C 
ATOM      8  O5   11 d           3.203  -9.361  -6.921  0.00  0.00    -0.267 OA
ATOM      9  N3   11 d           2.701  -9.652  -4.629  0.00  0.00    -0.323 N 
ATOM     10  H4   11 d           3.089  -9.572  -3.631  0.00  0.00     0.169 HD
BRANCH   9  11
ATOM     11  C8   11 d           1.299 -10.116  -4.739  0.00  0.00     0.035 A 
ATOM     12  C9   11 d           0.628 -10.416  -3.532  0.00  0.00     0.031 A 
ATOM     13  C10  11 d          -0.700 -10.867  -3.529  0.00  0.00     0.021 A 
ATOM     14  C11  11 d          -1.389 -11.023  -4.737  0.00  0.00     0.011 A 
ATOM     15 Br1   11 d          -3.216 -11.640  -4.737  0.00  0.00    -0.051 Br
ATOM     16  C12  11 d          -0.747 -10.729  -5.946  0.00  0.00     0.021 A 
ATOM     17  C13  11 d           0.584 -10.281  -5.951  0.00  0.00     0.031 A 
ENDBRANCH   9  11
ENDBRANCH   1   7
BRANCH   2  18
ATOM     18  N1   11 d           4.949  -7.175  -7.220  0.00  0.00    -0.115 N 
ATOM     19  O1   11 d           4.016  -6.573  -6.942  0.00  0.00    -0.532 OA
ATOM     20  O2   11 d           5.574  -6.839  -8.264  0.00  0.00    -0.532 OA
ENDBRANCH   2  18
BRANCH   4  21
ATOM     21  N2   11 d           9.021  -7.776  -4.625  0.00  0.00    -0.116 N 
ATOM     22  O3   11 d           9.584  -7.052  -5.311  0.00  0.00    -0.532 OA
ATOM     23  O4   11 d           9.666  -8.342  -3.700  0.00  0.00    -0.532 OA
ENDBRANCH   4  21
TORSDOF 4
