REMARK  0 active torsions:
REMARK  status: ('A' for Active; 'I' for Inactive)
REMARK       I    between atoms: C1_1  and  N1_2 
ROOT
ATOM      1  C1   11 d           3.297   0.270   0.528  0.00  0.00     0.221 C 
ATOM      2  N1   11 d           2.755  -1.063   0.864  0.00  0.00    -0.309 N 
ATOM      3  C2   11 d           1.286  -1.414   0.662  0.00  0.00     0.045 C 
ATOM      4  C3   11 d           0.758  -2.671   1.120  0.00  0.00    -0.018 C 
ATOM      5  C4   11 d           1.623  -3.882   1.486  0.00  0.00     0.015 C 
ATOM      6  C5   11 d           1.296  -5.178   0.687  0.00  0.00    -0.045 A 
ATOM      7  C6   11 d           1.988  -6.381   0.995  0.00  0.00     0.008 A 
ATOM      8  C7   11 d           1.710  -7.581   0.325  0.00  0.00     0.001 A 
ATOM      9  C8   11 d           0.743  -7.612  -0.684  0.00  0.00     0.000 A 
ATOM     10  C9   11 d           0.064  -6.440  -1.031  0.00  0.00     0.001 A 
ATOM     11  C10  11 d           0.340  -5.238  -0.362  0.00  0.00     0.008 A 
ATOM     12  C11  11 d           3.099  -3.565   1.156  0.00  0.00     0.049 C 
ATOM     13  C12  11 d           3.665  -2.152   1.457  0.00  0.00     0.034 C 
ATOM     14  C13  11 d           5.100  -2.223   0.835  0.00  0.00     0.039 C 
ATOM     15  C14  11 d           3.785  -1.928   2.980  0.00  0.00     0.039 C 
ATOM     16  C15  11 d           1.401  -4.186   2.998  0.00  0.00     0.026 C 
ATOM     17  C16  11 d          -0.646  -2.827   1.274  0.00  0.00     0.010 C 
ATOM     18  C17  11 d          -1.540  -1.869   0.808  0.00  0.00     0.001 C 
ATOM     19  C18  11 d          -1.050  -0.734   0.177  0.00  0.00     0.002 C 
ATOM     20  C19  11 d           0.329  -0.513   0.101  0.00  0.00     0.030 C 
ATOM     21  O1   11 d           2.546   1.190   0.064  0.00  0.00    -0.273 OA
ATOM     22  C20  11 d           4.710   0.746   0.754  0.00  0.00     0.117 C 
ENDROOT
TORSDOF 0
