REMARK  4 active torsions:
REMARK  status: ('A' for Active; 'I' for Inactive)
REMARK    1  A    between atoms: C1_1  and  N1_9 
REMARK    2  A    between atoms: C2_2  and  O1_8 
REMARK    3  A    between atoms: C8_10  and  C9_11 
REMARK    4  A    between atoms: C10_12  and  O2_17 
ROOT
ATOM      1  N1   11 d           2.964  -9.368  -3.120  0.00  0.00    -0.257 NA
ATOM      2  C8   11 d           4.208  -9.429  -3.550  0.00  0.00     0.131 C 
ENDROOT
BRANCH   1   3
ATOM      3  C1   11 d           1.849  -9.873  -3.894  0.00  0.00     0.089 A 
ATOM      4  C2   11 d           0.861 -10.651  -3.250  0.00  0.00     0.094 A 
ATOM      5  C3   11 d          -0.236 -11.137  -3.978  0.00  0.00     0.045 A 
ATOM      6  C4   11 d          -0.358 -10.877  -5.356  0.00  0.00    -0.059 A 
ATOM      7  C5   11 d           0.594 -10.052  -5.982  0.00  0.00     0.009 A 
ATOM      8  C7   11 d          -1.585 -11.321  -6.104  0.00  0.00     0.048 C 
ATOM      9  C6   11 d           1.690  -9.558  -5.260  0.00  0.00     0.035 A 
BRANCH   4  10
ATOM     10  O1   11 d           0.947 -10.959  -1.869  0.00  0.00    -0.358 OA
ATOM     11  H7   11 d           1.827 -11.497  -1.763  0.00  0.00     0.217 HD
ENDBRANCH   4  10
ENDBRANCH   1   3
BRANCH   2  12
ATOM     12  C9   11 d           4.707 -10.130  -4.767  0.00  0.00     0.015 A 
ATOM     13  C10  11 d           4.396 -11.479  -5.066  0.00  0.00     0.077 A 
ATOM     14  C11  11 d           4.949 -12.087  -6.206  0.00  0.00     0.037 A 
ATOM     15  C12  11 d           5.784 -11.360  -7.065  0.00  0.00     0.003 A 
ATOM     16  C13  11 d           6.096 -10.025  -6.773  0.00  0.00     0.001 A 
ATOM     17  C14  11 d           5.569  -9.417  -5.624  0.00  0.00     0.015 A 
BRANCH  13  18
ATOM     18  O2   11 d           3.641 -12.278  -4.174  0.00  0.00    -0.360 OA
ATOM     19  H13  11 d           2.727 -12.422  -4.637  0.00  0.00     0.217 HD
ENDBRANCH  13  18
ENDBRANCH   2  12
TORSDOF 4
