REMARK  4 active torsions:
REMARK  status: ('A' for Active; 'I' for Inactive)
REMARK    1  A    between atoms: C15_17  and  C16_19 
REMARK    2  A    between atoms: C16_19  and  C17_20 
REMARK    3  A    between atoms: C19_23  and  C20_24 
REMARK    4  A    between atoms: C20_24  and  C21_25 
ROOT
ATOM      1  C1   11 d           3.883   3.725  -0.401  0.00  0.00     0.047 A 
ATOM      2  C2   11 d           4.670   4.923  -0.782  0.00  0.00    -0.009 A 
ATOM      3  C3   11 d           4.972   5.974   0.128  0.00  0.00    -0.015 A 
ATOM      4  C4   11 d           5.785   7.061  -0.310  0.00  0.00    -0.025 A 
ATOM      5  C5   11 d           6.258   7.096  -1.634  0.00  0.00     0.012 A 
ATOM      6  C6   11 d           5.929   6.073  -2.529  0.00  0.00     0.002 A 
ATOM      7  C7   11 d           5.140   4.997  -2.108  0.00  0.00     0.013 A 
ATOM      8  C8   11 d           6.106   8.105   0.580  0.00  0.00     0.012 A 
ATOM      9  C9   11 d           5.618   8.091   1.892  0.00  0.00     0.001 A 
ATOM     10  C10  11 d           4.799   7.042   2.325  0.00  0.00     0.001 A 
ATOM     11  C11  11 d           4.473   5.995   1.452  0.00  0.00     0.013 A 
ATOM     12  C12  11 d           2.700   3.296  -0.977  0.00  0.00     0.166 A 
ATOM     13  N1   11 d           2.311   2.169  -0.354  0.00  0.00    -0.201 N 
ATOM     14  C13  11 d           1.162   1.522  -0.708  0.00  0.00     0.270 A 
ATOM     15  O1   11 d           0.810   0.463  -0.129  0.00  0.00    -0.266 OA
ATOM     16  C14  11 d           0.374   2.064  -1.738  0.00  0.00     0.103 A 
ATOM     17  C15  11 d           0.789   3.267  -2.363  0.00  0.00     0.042 A 
ATOM     18  N2   11 d           1.970   3.849  -1.982  0.00  0.00    -0.233 NA
ATOM     19  N3   11 d           3.178   1.850   0.566  0.00  0.00    -0.292 N 
ATOM     20  C19  11 d           4.176   2.770   0.577  0.00  0.00     0.045 A 
ATOM     21  H16  11 d           3.120   1.008   1.194  0.00  0.00     0.187 HD
ENDROOT
BRANCH  20  22
ATOM     22  C20  11 d           5.377   2.722   1.484  0.00  0.00     0.098 C 
BRANCH  22  23
ATOM     23  C21  11 d           6.180   1.465   1.255  0.00  0.00    -0.052 A 
ATOM     24  C22  11 d           6.370   0.532   2.296  0.00  0.00     0.007 A 
ATOM     25  C23  11 d           7.122  -0.632   2.075  0.00  0.00     0.001 A 
ATOM     26  C24  11 d           7.690  -0.875   0.816  0.00  0.00     0.000 A 
ATOM     27  C25  11 d           7.510   0.049  -0.224  0.00  0.00     0.001 A 
ATOM     28  C26  11 d           6.760   1.214  -0.006  0.00  0.00     0.007 A 
ENDBRANCH  22  23
ENDBRANCH  20  22
BRANCH  17  29
ATOM     29  C16  11 d           0.047   3.879  -3.529  0.00  0.00     0.059 C 
BRANCH  29  30
ATOM     30  C17  11 d          -0.536   2.873  -4.534  0.00  0.00     0.002 C 
ATOM     31  C18  11 d          -1.103   3.561  -5.775  0.00  0.00     0.005 C 
ENDBRANCH  29  30
ENDBRANCH  17  29
TORSDOF 4
