REMARK  3 active torsions:
REMARK  status: ('A' for Active; 'I' for Inactive)
REMARK    1  A    between atoms: C14_14  and  C15_15 
REMARK       I    between atoms: C15_15  and  N1_17 
REMARK    2  A    between atoms: N1_17  and  N2_18 
REMARK    3  A    between atoms: C16_19  and  C17_20 
ROOT
ATOM      1  C1   11 d           2.599  -9.389  -4.465  0.00  0.00     0.027 A 
ATOM      2  C2   11 d           3.298  -8.765  -5.693  0.00  0.00    -0.044 A 
ATOM      3  C3   11 d           4.474  -7.975  -5.598  0.00  0.00     0.008 A 
ATOM      4  C4   11 d           5.094  -7.451  -6.744  0.00  0.00     0.001 A 
ATOM      5  C5   11 d           4.557  -7.698  -8.012  0.00  0.00     0.000 A 
ATOM      6  C6   11 d           3.397  -8.468  -8.136  0.00  0.00     0.001 A 
ATOM      7  C7   11 d           2.776  -8.993  -6.994  0.00  0.00     0.008 A 
ATOM      8  C8   11 d           1.219 -10.022  -4.667  0.00  0.00    -0.044 A 
ATOM      9  C9   11 d           0.891 -11.372  -4.389  0.00  0.00     0.008 A 
ATOM     10  C10  11 d          -0.428 -11.831  -4.530  0.00  0.00     0.001 A 
ATOM     11  C11  11 d          -1.436 -10.958  -4.957  0.00  0.00     0.000 A 
ATOM     12  C12  11 d          -1.126  -9.625  -5.254  0.00  0.00     0.001 A 
ATOM     13  C13  11 d           0.189  -9.163  -5.112  0.00  0.00     0.008 A 
ATOM     14  C14  11 d           2.974  -9.326  -2.979  0.00  0.00     0.099 A 
ATOM     15  C21  11 d           3.711 -10.306  -3.872  0.00  0.00     0.035 A 
ENDROOT
BRANCH  14  16
ATOM     16  C15  11 d           3.582  -8.093  -2.375  0.00  0.00     0.243 C 
ATOM     17  O1   11 d           3.157  -6.930  -2.708  0.00  0.00    -0.271 OA
ATOM     18  N1   11 d           4.630  -8.253  -1.423  0.00  0.00    -0.247 N 
ATOM     19  H12  11 d           4.984  -9.233  -1.167  0.00  0.00     0.192 HD
BRANCH  18  20
ATOM     20  N2   11 d           5.236  -7.183  -0.754  0.00  0.00    -0.182 NA
ATOM     21  C16  11 d           5.825  -6.246  -1.449  0.00  0.00     0.175 C 
BRANCH  21  22
ATOM     22  C17  11 d           6.545  -5.176  -0.730  0.00  0.00     0.094 A 
ATOM     23  O2   11 d           7.053  -5.332   0.471  0.00  0.00    -0.321 OA
ATOM     24  C18  11 d           7.642  -4.209   0.800  0.00  0.00     0.142 A 
ATOM     25  C19  11 d           7.509  -3.268  -0.205  0.00  0.00     0.027 A 
ATOM     26  C20  11 d           6.798  -3.901  -1.207  0.00  0.00     0.040 A 
ENDBRANCH  21  22
ENDBRANCH  18  20
ENDBRANCH  14  16
TORSDOF 3
