REMARK  7 active torsions:
REMARK  status: ('A' for Active; 'I' for Inactive)
REMARK    1  A    between atoms: C1_1  and  C2_2 
REMARK    2  A    between atoms: C1_1  and  C12_13 
REMARK    3  A    between atoms: C12_13  and  N1_14 
REMARK    4  A    between atoms: C15_17  and  C18_20 
REMARK    5  A    between atoms: C18_20  and  C19_21 
REMARK    6  A    between atoms: C19_21  and  S1_22 
REMARK    7  A    between atoms: S1_22  and  C20_23 
ROOT
ATOM      1  N1   11 d           0.447  -1.431  -6.279  0.00  0.00    -0.359 N 
ATOM      2  C13  11 d          -0.513  -1.490  -7.266  0.00  0.00     0.091 A 
ATOM      3  C14  11 d          -0.498  -0.609  -8.354  0.00  0.00     0.024 A 
ATOM      4  C15  11 d           0.519   0.354  -8.466  0.00  0.00    -0.055 A 
ATOM      5  C16  11 d           1.496   0.409  -7.456  0.00  0.00     0.024 A 
ATOM      6  C17  11 d           1.448  -0.488  -6.377  0.00  0.00     0.091 A 
ENDROOT
BRANCH   1   7
ATOM      7  C12  11 d           0.296  -2.413  -5.169  0.00  0.00     0.206 C 
BRANCH   7   8
ATOM      8  C1   11 d           1.225  -2.536  -3.960  0.00  0.00     0.153 C 
ATOM      9  O1   11 d           2.198  -1.754  -3.819  0.00  0.00    -0.295 OA
BRANCH   8  10
ATOM     10  C2   11 d           0.958  -3.576  -2.856  0.00  0.00     0.023 C 
ATOM     11  C3   11 d           1.364  -3.020  -1.454  0.00  0.00     0.022 C 
ATOM     12  C4   11 d           1.176  -4.093  -0.357  0.00  0.00    -0.013 C 
ATOM     13  C5   11 d           2.056  -5.322  -0.690  0.00  0.00     0.009 C 
ATOM     14  C11  11 d          -0.308  -4.519  -0.301  0.00  0.00     0.009 C 
ATOM     15  C6   11 d           1.638  -5.906  -2.059  0.00  0.00    -0.013 C 
ATOM     16  C7   11 d           1.827  -4.833  -3.158  0.00  0.00     0.022 C 
ATOM     17  C8   11 d           0.153  -6.332  -2.000  0.00  0.00     0.009 C 
ATOM     18  C9   11 d          -0.726  -5.102  -1.669  0.00  0.00    -0.013 C 
ATOM     19  C10  11 d          -0.536  -4.029  -2.766  0.00  0.00     0.022 C 
ENDBRANCH   8  10
ENDBRANCH   7   8
ENDBRANCH   1   7
BRANCH   4  20
ATOM     20  C18  11 d           0.471   1.372  -9.589  0.00  0.00     0.049 C 
BRANCH  20  21
ATOM     21  C19  11 d           0.741   2.820  -9.156  0.00  0.00     0.084 C 
BRANCH  21  22
ATOM     22  S1   11 d           0.155   3.994 -10.449  0.00  0.00    -0.130 SA
BRANCH  22  23
ATOM     23  C20  11 d           1.119   5.415  -9.867  0.00  0.00     0.000 A 
ATOM     24  C21  11 d           2.098   5.974 -10.706  0.00  0.00     0.018 A 
ATOM     25  C22  11 d           2.842   7.085 -10.278  0.00  0.00     0.001 A 
ATOM     26  C23  11 d           2.609   7.640  -9.011  0.00  0.00     0.000 A 
ATOM     27  C24  11 d           1.635   7.081  -8.169  0.00  0.00     0.001 A 
ATOM     28  C25  11 d           0.885   5.976  -8.599  0.00  0.00     0.018 A 
ENDBRANCH  22  23
ENDBRANCH  21  22
ENDBRANCH  20  21
ENDBRANCH   4  20
TORSDOF 7
