REMARK  1 active torsions:
REMARK  status: ('A' for Active; 'I' for Inactive)
REMARK    1  A    between atoms: C4_5  and  S1_13 
ROOT
ATOM      1  C1   11 d          -3.482   8.352  -4.746  0.00  0.00     0.268 A 
ATOM      2  C2   11 d          -2.204   8.055  -4.252  0.00  0.00     0.076 A 
ATOM      3  C3   11 d          -1.843   6.730  -4.118  0.00  0.00     0.117 A 
ATOM      4  N1   11 d          -2.676   5.713  -4.440  0.00  0.00    -0.216 NA
ATOM      5  C4   11 d          -3.921   5.999  -4.921  0.00  0.00     0.174 A 
ATOM      6  N2   11 d          -4.331   7.313  -5.084  0.00  0.00    -0.257 N 
ATOM      7  C5   11 d          -5.642   7.607  -5.613  0.00  0.00     0.044 A 
ATOM      8  C6   11 d          -6.614   8.223  -4.800  0.00  0.00     0.030 A 
ATOM      9  C7   11 d          -7.887   8.513  -5.316  0.00  0.00     0.002 A 
ATOM     10  C8   11 d          -8.196   8.191  -6.646  0.00  0.00     0.000 A 
ATOM     11  C9   11 d          -7.231   7.582  -7.463  0.00  0.00     0.002 A 
ATOM     12  C10  11 d          -5.958   7.293  -6.949  0.00  0.00     0.030 A 
ATOM     13  S2   11 d          -0.456   6.641  -3.566  0.00  0.00    -0.073 SA
ATOM     14  C11  11 d          -0.081   8.092  -3.413  0.00  0.00    -0.004 A 
ATOM     15  C12  11 d          -1.145   8.887  -3.853  0.00  0.00    -0.025 A 
ATOM     16  C13  11 d          -1.155  10.386  -3.688  0.00  0.00     0.049 C 
ATOM     17  C14  11 d          -0.113  10.878  -2.642  0.00  0.00    -0.043 C 
ATOM     18  C15  11 d           1.255  10.186  -2.919  0.00  0.00     0.018 C 
ATOM     19  C16  11 d           1.220   8.635  -2.862  0.00  0.00     0.023 C 
ATOM     20  C17  11 d           2.447   8.037  -3.567  0.00  0.00     0.015 C 
ATOM     21  C18  11 d          -0.603  10.583  -1.204  0.00  0.00     0.015 C 
ATOM     22  C19  11 d           0.058  12.407  -2.781  0.00  0.00     0.015 C 
ATOM     23  O1   11 d          -3.835   9.550  -4.906  0.00  0.00    -0.267 OA
ENDROOT
BRANCH   5  24
ATOM     24  S1   11 d          -4.984   4.579  -5.285  0.00  0.00    -0.104 SA
ATOM     25  H6   11 d          -5.819   4.864  -4.162  0.00  0.00     0.110 HD
ENDBRANCH   5  24
TORSDOF 1
