REMARK  6 active torsions:
REMARK  status: ('A' for Active; 'I' for Inactive)
REMARK    1  A    between atoms: C1_1  and  C2_2 
REMARK       I    between atoms: C1_1  and  N1_9 
REMARK    2  A    between atoms: N1_9  and  N2_10 
REMARK    3  A    between atoms: N1_9  and  C19_24 
REMARK    4  A    between atoms: C19_24  and  C20_25 
REMARK    5  A    between atoms: C20_25  and  C21_26 
REMARK    6  A    between atoms: C23_28  and  O3_29 
ROOT
ATOM      1  C1   11 d           2.947 -10.131  -4.673  0.00  0.00     0.273 C 
ATOM      2  N1   11 d           3.558  -9.267  -5.641  0.00  0.00    -0.237 N 
ATOM      3  O5   11 d           3.706 -10.911  -3.991  0.00  0.00    -0.266 OA
ENDROOT
BRANCH   2   4
ATOM      4  N2   11 d           4.730  -8.556  -5.256  0.00  0.00    -0.184 N 
ATOM      5  C8   11 d           5.821  -8.216  -6.053  0.00  0.00     0.251 C 
ATOM      6  O1   11 d           5.765  -7.476  -7.098  0.00  0.00    -0.271 OA
ATOM      7  C9   11 d           7.056  -8.602  -5.289  0.00  0.00     0.102 C 
ATOM      8  C10  11 d           6.534  -8.472  -3.787  0.00  0.00     0.102 C 
ATOM      9  C15  11 d           8.331  -7.719  -5.487  0.00  0.00     0.026 C 
ATOM     10  C11  11 d           5.101  -8.059  -4.015  0.00  0.00     0.251 C 
ATOM     11  C12  11 d           7.465  -7.492  -3.001  0.00  0.00     0.026 C 
ATOM     12  O2   11 d           4.437  -7.190  -3.350  0.00  0.00    -0.271 OA
ATOM     13  C13  11 d           8.859  -8.110  -3.144  0.00  0.00    -0.024 C 
ATOM     14  C17  11 d           7.431  -6.106  -3.730  0.00  0.00    -0.001 A 
ATOM     15  C14  11 d           9.303  -8.229  -4.422  0.00  0.00    -0.024 C 
ATOM     16  C16  11 d           7.963  -6.223  -5.188  0.00  0.00    -0.001 A 
ATOM     17  C18  11 d           8.674  -5.335  -4.163  0.00  0.00     0.011 A 
ENDBRANCH   2   4
BRANCH   2  18
ATOM     18  C19  11 d           3.035  -9.073  -7.042  0.00  0.00     0.237 C 
BRANCH  18  19
ATOM     19  C20  11 d           2.110 -10.139  -7.608  0.00  0.00     0.179 C 
ATOM     20  O4   11 d           2.245 -11.326  -7.211  0.00  0.00    -0.290 OA
BRANCH  19  21
ATOM     21  C21  11 d           0.972  -9.803  -8.521  0.00  0.00     0.014 A 
ATOM     22  C22  11 d          -0.084 -10.727  -8.709  0.00  0.00     0.052 A 
ATOM     23  C23  11 d          -1.131 -10.456  -9.606  0.00  0.00     0.069 A 
ATOM     24  C25  11 d          -1.124  -9.257 -10.338  0.00  0.00     0.037 A 
ATOM     25  C26  11 d          -0.100  -8.320 -10.146  0.00  0.00     0.004 A 
ATOM     26  C27  11 d           0.942  -8.590  -9.247  0.00  0.00     0.015 A 
BRANCH  23  27
ATOM     27  O3   11 d          -2.131 -11.442  -9.836  0.00  0.00    -0.356 OA
ATOM     28  C24  11 d          -3.431 -10.987  -9.374  0.00  0.00     0.210 C 
ENDBRANCH  23  27
ENDBRANCH  19  21
ENDBRANCH  18  19
ENDBRANCH   2  18
BRANCH   1  29
ATOM     29  C2   11 d           1.467 -10.191  -4.473  0.00  0.00     0.034 A 
ATOM     30  C3   11 d           0.878 -11.363  -3.950  0.00  0.00     0.019 A 
ATOM     31  C4   11 d          -0.518 -11.487  -3.869  0.00  0.00     0.025 A 
ATOM     32  C5   11 d          -1.344 -10.438  -4.300  0.00  0.00     0.034 A 
ATOM     33 Cl1   11 d          -3.116 -10.614  -4.240  0.00  0.00    -0.084 Cl
ATOM     34  C6   11 d          -0.771  -9.253  -4.782  0.00  0.00     0.025 A 
ATOM     35  C7   11 d           0.625  -9.123  -4.858  0.00  0.00     0.019 A 
ENDBRANCH   1  29
TORSDOF 6
