REMARK  3 active torsions:
REMARK  status: ('A' for Active; 'I' for Inactive)
REMARK    1  A    between atoms: C1_1  and  N1_2 
REMARK    2  A    between atoms: C2_3  and  C3_4 
REMARK    3  A    between atoms: C6_7  and  N2_8 
ROOT
ATOM      1  C3   11 d           1.911 -10.373  -4.700  0.00  0.00    -0.018 A 
ATOM      2  C4   11 d           1.472 -10.470  -6.034  0.00  0.00     0.015 A 
ATOM      3  C5   11 d           0.102 -10.494  -6.334  0.00  0.00     0.037 A 
ATOM      4  C6   11 d          -0.869 -10.447  -5.306  0.00  0.00     0.102 A 
ATOM      5  C7   11 d          -0.417 -10.376  -3.969  0.00  0.00     0.037 A 
ATOM      6  C8   11 d           0.954 -10.347  -3.670  0.00  0.00     0.015 A 
ENDROOT
BRANCH   1   7
ATOM      7  C2   11 d           3.356 -10.383  -4.333  0.00  0.00     0.131 C 
ATOM      8  N1   11 d           4.349  -9.767  -4.941  0.00  0.00    -0.234 NA
BRANCH   8   9
ATOM      9  C1   11 d           4.143  -8.785  -5.977  0.00  0.00     0.192 A 
ATOM     10  N3   11 d           3.055  -7.998  -6.168  0.00  0.00    -0.235 NA
ATOM     11  C9   11 d           3.250  -7.176  -7.234  0.00  0.00     0.127 A 
ATOM     12  C10  11 d           4.503  -7.378  -7.796  0.00  0.00     0.072 A 
ATOM     13  S1   11 d           5.181  -8.446  -7.002  0.00  0.00    -0.061 SA
ENDBRANCH   8   9
ENDBRANCH   1   7
BRANCH   4  14
ATOM     14  N2   11 d          -2.237 -10.472  -5.597  0.00  0.00    -0.116 N 
ATOM     15  O1   11 d          -2.602 -10.560  -6.679  0.00  0.00    -0.532 OA
ATOM     16  O2   11 d          -3.094 -10.537  -4.672  0.00  0.00    -0.532 OA
ENDBRANCH   4  14
TORSDOF 3
