REMARK  8 active torsions:
REMARK  status: ('A' for Active; 'I' for Inactive)
REMARK    1  A    between atoms: C1_1  and  S1_17 
REMARK    2  A    between atoms: C2_4  and  C4_7 
REMARK    3  A    between atoms: C4_7  and  O1_8 
REMARK    4  A    between atoms: O1_8  and  C5_9 
REMARK    5  A    between atoms: S1_17  and  C13_18 
REMARK    6  A    between atoms: C13_18  and  C14_19 
REMARK       I    between atoms: C14_19  and  N4_21 
REMARK    7  A    between atoms: N4_21  and  C15_22 
REMARK    8  A    between atoms: C16_23  and  C21_29 
ROOT
ATOM      1  C1   11 d           9.445   1.283  -3.453  0.00  0.00     0.191 A 
ATOM      2  N1   11 d           8.745   1.454  -4.591  0.00  0.00    -0.122 NA
ATOM      3  N2   11 d           7.631   2.058  -4.303  0.00  0.00    -0.132 NA
ATOM      4  C2   11 d           7.567   2.245  -2.967  0.00  0.00     0.154 A 
ATOM      5  N3   11 d           8.732   1.806  -2.434  0.00  0.00    -0.314 N 
ATOM      6  C3   11 d           9.149   1.911  -1.033  0.00  0.00     0.160 C 
ENDROOT
BRANCH   1   7
ATOM      7  S1   11 d          11.045   0.438  -3.349  0.00  0.00    -0.081 SA
BRANCH   7   8
ATOM      8  C13  11 d          11.874   1.499  -4.602  0.00  0.00     0.185 C 
BRANCH   8   9
ATOM      9  C14  11 d          13.314   1.094  -4.793  0.00  0.00     0.231 C 
ATOM     10  O2   11 d          14.024   0.909  -3.747  0.00  0.00    -0.272 OA
ATOM     11  N4   11 d          13.843   0.919  -6.120  0.00  0.00    -0.326 N 
ATOM     12  H17  11 d          13.136   1.110  -6.896  0.00  0.00     0.169 HD
BRANCH  11  13
ATOM     13  C15  11 d          15.225   0.521  -6.524  0.00  0.00     0.041 A 
ATOM     14  C16  11 d          15.575   0.404  -7.915  0.00  0.00    -0.027 A 
ATOM     15  C17  11 d          16.912   0.080  -8.261  0.00  0.00     0.029 A 
ATOM     16  C18  11 d          17.887  -0.136  -7.286  0.00  0.00     0.011 A 
ATOM     17 Br1   11 d          19.695  -0.569  -7.801  0.00  0.00    -0.051 Br
ATOM     18  C19  11 d          17.548  -0.047  -5.939  0.00  0.00     0.021 A 
ATOM     19  C20  11 d          16.241   0.275  -5.564  0.00  0.00     0.031 A 
BRANCH  14  20
ATOM     20  C21  11 d          14.532   0.481  -9.038  0.00  0.00     0.013 C 
ATOM     21  C22  11 d          14.801  -0.395 -10.277  0.00  0.00     0.015 C 
ATOM     22  C23  11 d          14.324   1.942  -9.458  0.00  0.00     0.015 C 
ENDBRANCH  14  20
ENDBRANCH  11  13
ENDBRANCH   8   9
ENDBRANCH   7   8
ENDBRANCH   1   7
BRANCH   4  23
ATOM     23  C4   11 d           6.481   3.039  -2.294  0.00  0.00     0.256 C 
BRANCH  23  24
ATOM     24  O1   11 d           5.449   2.129  -1.825  0.00  0.00    -0.344 OA
BRANCH  24  25
ATOM     25  C5   11 d           4.314   2.861  -1.380  0.00  0.00     0.070 A 
ATOM     26  C6   11 d           3.313   3.227  -2.293  0.00  0.00     0.043 A 
ATOM     27  C7   11 d           2.142   3.871  -1.851  0.00  0.00    -0.059 A 
ATOM     28  C8   11 d           1.996   4.163  -0.481  0.00  0.00     0.013 A 
ATOM     29  C12  11 d           1.143   4.390  -2.849  0.00  0.00     0.048 C 
ATOM     30  C9   11 d           2.956   3.728   0.454  0.00  0.00    -0.059 A 
ATOM     31  C10  11 d           4.126   3.094  -0.009  0.00  0.00     0.043 A 
ATOM     32  C11  11 d           2.812   4.080   1.909  0.00  0.00     0.048 C 
ENDBRANCH  24  25
ENDBRANCH  23  24
ENDBRANCH   4  23
TORSDOF 8
