REMARK  4 active torsions:
REMARK  status: ('A' for Active; 'I' for Inactive)
REMARK    1  A    between atoms: C6_9  and  N3_10 
REMARK    2  A    between atoms: N3_10  and  C7_11 
REMARK    3  A    between atoms: C7_11  and  C8_12 
REMARK    4  A    between atoms: C8_12  and  C9_13 
ROOT
ATOM      1  C1   11 d           2.171  -5.565  -6.977  0.00  0.00     0.053 A 
ATOM      2  C2   11 d           1.114  -5.022  -6.217  0.00  0.00    -0.023 A 
ATOM      3  C3   11 d           0.662  -3.858  -6.836  0.00  0.00     0.016 A 
ATOM      4  S1   11 d           1.467  -3.590  -8.073  0.00  0.00    -0.071 SA
ATOM      5  C4   11 d           2.410  -4.750  -8.079  0.00  0.00     0.114 A 
ATOM      6  N1   11 d           3.368  -5.019  -9.000  0.00  0.00    -0.234 NA
ATOM      7  C5   11 d           4.131  -6.138  -8.842  0.00  0.00     0.236 A 
ATOM      8  N2   11 d           3.938  -6.955  -7.761  0.00  0.00    -0.224 NA
ATOM      9  C6   11 d           2.984  -6.710  -6.804  0.00  0.00     0.138 A 
ATOM     10  C15  11 d          -0.473  -3.028  -6.311  0.00  0.00     0.215 C 
ATOM     11  O1   11 d          -0.972  -3.514  -5.025  0.00  0.00    -0.376 OA
ATOM     12  C16  11 d          -1.044  -4.969  -4.883  0.00  0.00     0.058 C 
ATOM     13  C17  11 d           0.367  -5.604  -5.046  0.00  0.00     0.078 C 
ATOM     14  C18  11 d          -2.060  -5.572  -5.880  0.00  0.00     0.046 C 
ATOM     15  C19  11 d          -1.556  -5.232  -3.457  0.00  0.00     0.046 C 
ENDROOT
BRANCH   9  16
ATOM     16  N3   11 d           2.914  -7.551  -5.700  0.00  0.00    -0.374 N 
ATOM     17  H2   11 d           2.417  -7.252  -4.897  0.00  0.00     0.161 HD
BRANCH  16  18
ATOM     18  C7   11 d           3.517  -8.834  -5.686  0.00  0.00     0.126 C 
BRANCH  18  19
ATOM     19  C8   11 d           2.898  -9.772  -4.634  0.00  0.00     0.058 C 
BRANCH  19  20
ATOM     20  C9   11 d           3.603 -11.100  -4.418  0.00  0.00    -0.057 A 
ATOM     21  C10  11 d           3.498 -11.715  -3.151  0.00  0.00     0.007 A 
ATOM     22  C11  11 d           4.188 -12.904  -2.870  0.00  0.00     0.001 A 
ATOM     23  C12  11 d           5.015 -13.482  -3.841  0.00  0.00     0.000 A 
ATOM     24  C13  11 d           5.158 -12.868  -5.092  0.00  0.00     0.001 A 
ATOM     25  C14  11 d           4.466 -11.680  -5.377  0.00  0.00     0.007 A 
ENDBRANCH  19  20
ENDBRANCH  18  19
ENDBRANCH  16  18
ENDBRANCH   9  16
TORSDOF 4
