REMARK  5 active torsions:
REMARK  status: ('A' for Active; 'I' for Inactive)
REMARK    1  A    between atoms: C1_1  and  S1_2 
REMARK    2  A    between atoms: S1_2  and  N1_3 
REMARK    3  A    between atoms: N2_6  and  C4_7 
REMARK    4  A    between atoms: C4_7  and  C5_8 
REMARK    5  A    between atoms: C4_7  and  C11_14 
ROOT
ATOM      1  N1   11 d           2.957  -8.612  -4.591  0.00  0.00    -0.203 NA
ATOM      2  C2   11 d           4.364  -8.140  -4.634  0.00  0.00     0.135 C 
ATOM      3  C3   11 d           4.995  -8.107  -3.239  0.00  0.00     0.251 C 
ATOM      4  N2   11 d           4.174  -7.393  -2.182  0.00  0.00    -0.057 N 
ATOM      5  C17  11 d           2.667  -7.543  -2.316  0.00  0.00     0.251 C 
ATOM      6  C18  11 d           2.106  -7.748  -3.738  0.00  0.00     0.135 C 
ATOM      7  H5   11 d           4.400  -7.976  -1.309  0.00  0.00     0.281 HD
ENDROOT
BRANCH   4   8
ATOM      8  C4   11 d           4.716  -6.006  -1.827  0.00  0.00     0.254 C 
BRANCH   8   9
ATOM      9  C5   11 d           4.045  -5.399  -0.581  0.00  0.00    -0.023 A 
ATOM     10  C6   11 d           3.420  -4.125  -0.561  0.00  0.00     0.009 A 
ATOM     11  C7   11 d           2.802  -3.638   0.600  0.00  0.00     0.001 A 
ATOM     12  C8   11 d           2.811  -4.399   1.774  0.00  0.00     0.000 A 
ATOM     13  C9   11 d           3.453  -5.641   1.792  0.00  0.00     0.001 A 
ATOM     14  C10  11 d           4.071  -6.132   0.633  0.00  0.00     0.009 A 
ENDBRANCH   8   9
BRANCH   8  15
ATOM     15  C11  11 d           4.749  -5.090  -3.055  0.00  0.00    -0.023 A 
ATOM     16  C12  11 d           5.997  -4.666  -3.571  0.00  0.00     0.009 A 
ATOM     17  C13  11 d           6.066  -3.865  -4.720  0.00  0.00     0.001 A 
ATOM     18  C14  11 d           4.892  -3.463  -5.368  0.00  0.00     0.000 A 
ATOM     19  C15  11 d           3.647  -3.849  -4.858  0.00  0.00     0.001 A 
ATOM     20  C16  11 d           3.575  -4.649  -3.709  0.00  0.00     0.009 A 
ENDBRANCH   8  15
ENDBRANCH   4   8
BRANCH   1  21
ATOM     21  S1   11 d           2.769 -10.337  -4.242  0.00  0.00     0.243 S 
ATOM     22  O1   11 d           3.763 -11.132  -5.091  0.00  0.00    -0.206 OA
ATOM     23  O2   11 d           3.121 -10.613  -2.777  0.00  0.00    -0.206 OA
BRANCH  21  24
ATOM     24  C1   11 d           1.098 -10.900  -4.596  0.00  0.00     0.074 A 
ATOM     25  C19  11 d           0.295 -11.459  -3.587  0.00  0.00     0.025 A 
ATOM     26  C20  11 d          -1.020 -11.856  -3.873  0.00  0.00     0.008 A 
ATOM     27  C21  11 d          -1.538 -11.727  -5.176  0.00  0.00    -0.062 A 
ATOM     28  C22  11 d          -0.737 -11.142  -6.176  0.00  0.00     0.008 A 
ATOM     29  C24  11 d          -2.980 -12.049  -5.453  0.00  0.00     0.048 C 
ATOM     30  C23  11 d           0.578 -10.746  -5.892  0.00  0.00     0.025 A 
ENDBRANCH  21  24
ENDBRANCH   1  21
TORSDOF 5
