REMARK  3 active torsions:
REMARK  status: ('A' for Active; 'I' for Inactive)
REMARK    1  A    between atoms: C1_1  and  C2_2 
REMARK    2  A    between atoms: C1_1  and  C8_9 
REMARK    3  A    between atoms: C9_10  and  C10_11 
ROOT
ATOM      1  C8   11 d           3.610 -10.272  -3.349  0.00  0.00     0.079 C 
ATOM      2  C9   11 d           4.780  -9.263  -3.257  0.00  0.00     0.103 C 
ATOM      3  C11  11 d           5.909  -9.585  -4.263  0.00  0.00     0.056 C 
ATOM      4  C12  11 d           6.090 -11.059  -4.627  0.00  0.00    -0.040 C 
ATOM      5  C13  11 d           5.314 -12.043  -4.058  0.00  0.00    -0.040 C 
ATOM      6  C14  11 d           5.469 -13.486  -4.412  0.00  0.00    -0.029 A 
ATOM      7  C15  11 d           6.711 -14.131  -4.239  0.00  0.00     0.012 A 
ATOM      8  C16  11 d           6.863 -15.485  -4.574  0.00  0.00     0.001 A 
ATOM      9  C17  11 d           5.775 -16.208  -5.082  0.00  0.00     0.000 A 
ATOM     10  C18  11 d           4.535 -15.578  -5.258  0.00  0.00     0.001 A 
ATOM     11  C19  11 d           4.381 -14.223  -4.926  0.00  0.00     0.012 A 
ATOM     12  C20  11 d           4.183 -11.678  -3.106  0.00  0.00     0.053 C 
ATOM     13  C21  11 d           7.089 -11.348  -5.701  0.00  0.00    -0.029 A 
ATOM     14  C22  11 d           6.701 -12.032  -6.872  0.00  0.00     0.012 A 
ATOM     15  C23  11 d           7.632 -12.293  -7.888  0.00  0.00     0.001 A 
ATOM     16  C24  11 d           8.959 -11.864  -7.748  0.00  0.00     0.000 A 
ATOM     17  C25  11 d           9.354 -11.171  -6.595  0.00  0.00     0.001 A 
ATOM     18  C26  11 d           8.424 -10.911  -5.576  0.00  0.00     0.012 A 
ENDROOT
BRANCH   1  19
ATOM     19  C1   11 d           2.783 -10.251  -4.638  0.00  0.00     0.164 C 
ATOM     20  O1   11 d           3.363 -10.044  -5.738  0.00  0.00    -0.292 OA
BRANCH  19  21
ATOM     21  C2   11 d           1.290 -10.380  -4.639  0.00  0.00     0.010 A 
ATOM     22  C3   11 d           0.554  -9.965  -5.772  0.00  0.00     0.015 A 
ATOM     23  C4   11 d          -0.842 -10.101  -5.815  0.00  0.00     0.001 A 
ATOM     24  C5   11 d          -1.526 -10.657  -4.727  0.00  0.00     0.000 A 
ATOM     25  C6   11 d          -0.815 -11.078  -3.596  0.00  0.00     0.001 A 
ATOM     26  C7   11 d           0.582 -10.943  -3.551  0.00  0.00     0.015 A 
ENDBRANCH  19  21
ENDBRANCH   1  19
BRANCH   2  27
ATOM     27  C10  11 d           4.345  -7.812  -3.256  0.00  0.00     0.178 C 
ATOM     28  O2   11 d           3.109  -7.493  -2.962  0.00  0.00    -0.648 OA
ATOM     29  O3   11 d           5.165  -6.877  -3.663  0.00  0.00    -0.648 OA
ENDBRANCH   2  27
TORSDOF 3
