REMARK  4 active torsions:
REMARK  status: ('A' for Active; 'I' for Inactive)
REMARK    1  A    between atoms: C1_1  and  C2_2 
REMARK    2  A    between atoms: C4_4  and  N1_5 
REMARK    3  A    between atoms: C5_6  and  C6_7 
REMARK    4  A    between atoms: C11_12  and  O1_13 
ROOT
ATOM      1  C6   11 d          -2.840 -10.066  -8.527  0.00  0.00     0.026 A 
ATOM      2  C7   11 d          -3.095 -11.243  -7.766  0.00  0.00    -0.011 A 
ATOM      3  C8   11 d          -4.410 -11.481  -7.269  0.00  0.00    -0.025 A 
ATOM      4  C9   11 d          -5.444 -10.573  -7.553  0.00  0.00     0.015 A 
ATOM      5  C10  11 d          -5.193  -9.445  -8.340  0.00  0.00     0.038 A 
ATOM      6  C11  11 d          -3.913  -9.205  -8.853  0.00  0.00     0.078 A 
ATOM      7  C12  11 d          -4.678 -12.630  -6.499  0.00  0.00     0.012 A 
ATOM      8  C13  11 d          -3.660 -13.553  -6.231  0.00  0.00     0.001 A 
ATOM      9  C14  11 d          -2.372 -13.344  -6.736  0.00  0.00     0.001 A 
ATOM     10  C15  11 d          -2.091 -12.205  -7.503  0.00  0.00     0.013 A 
ENDROOT
BRANCH   1  11
ATOM     11  C5   11 d          -1.486  -9.681  -9.030  0.00  0.00     0.132 C 
ATOM     12  N1   11 d          -0.387  -9.539  -8.314  0.00  0.00    -0.260 NA
BRANCH  12  13
ATOM     13  C4   11 d          -0.379  -9.593  -6.867  0.00  0.00     0.057 A 
ATOM     14  C3   11 d           0.692 -10.259  -6.246  0.00  0.00     0.046 A 
ATOM     15  C2   11 d           0.792 -10.329  -4.838  0.00  0.00     0.011 A 
ATOM     16  C18  11 d          -0.211  -9.712  -4.059  0.00  0.00     0.015 A 
ATOM     17  C17  11 d          -1.271  -9.028  -4.671  0.00  0.00     0.003 A 
ATOM     18  C16  11 d          -1.349  -8.956  -6.068  0.00  0.00     0.031 A 
BRANCH  15  19
ATOM     19  C1   11 d           1.936 -11.053  -4.204  0.00  0.00     0.155 C 
ATOM     20  O2   11 d           2.697 -11.758  -4.916  0.00  0.00    -0.293 OA
ATOM     21  C19  11 d           2.309 -10.853  -2.762  0.00  0.00     0.096 C 
ENDBRANCH  15  19
ENDBRANCH  12  13
ENDBRANCH   1  11
BRANCH   6  22
ATOM     22  O1   11 d          -3.695  -8.009  -9.579  0.00  0.00    -0.360 OA
ATOM     23  H5   11 d          -3.867  -8.256 -10.569  0.00  0.00     0.217 HD
ENDBRANCH   6  22
TORSDOF 4
