REMARK  2 active torsions:
REMARK  status: ('A' for Active; 'I' for Inactive)
REMARK    1  A    between atoms: C3_4  and  C4_5 
REMARK    2  A    between atoms: C4_5  and  N1_6 
ROOT
ATOM      1  C1   11 d           0.576   7.185  -2.527  0.00  0.00     0.045 A 
ATOM      2  C2   11 d           0.795   8.133  -3.640  0.00  0.00     0.168 C 
ATOM      3  O1   11 d          -0.109   8.334  -4.492  0.00  0.00    -0.292 OA
ATOM      4  C3   11 d           2.184   8.745  -3.798  0.00  0.00     0.079 C 
ATOM      5  C9   11 d           3.263   7.730  -3.332  0.00  0.00     0.020 C 
ATOM      6  C10  11 d           3.032   7.244  -1.885  0.00  0.00     0.059 C 
ATOM      7  C11  11 d           1.604   6.816  -1.663  0.00  0.00     0.026 A 
ATOM      8  N3   11 d           1.137   5.887  -0.785  0.00  0.00    -0.353 N 
ATOM      9  C12  11 d          -0.187   5.717  -1.029  0.00  0.00     0.045 A 
ATOM     10  C13  11 d          -0.554   6.502  -2.112  0.00  0.00     0.007 A 
ATOM     11  C14  11 d          -1.869   6.513  -2.601  0.00  0.00     0.015 A 
ATOM     12  C15  11 d          -2.824   5.705  -1.953  0.00  0.00     0.001 A 
ATOM     13  C16  11 d          -2.457   4.908  -0.847  0.00  0.00     0.002 A 
ATOM     14  C17  11 d          -1.129   4.905  -0.377  0.00  0.00     0.030 A 
ATOM     15  C18  11 d           1.897   5.287   0.315  0.00  0.00     0.156 C 
ENDROOT
BRANCH   4  16
ATOM     16  C4   11 d           2.459   9.279  -5.223  0.00  0.00     0.142 C 
BRANCH  16  17
ATOM     17  N1   11 d           3.700  10.058  -5.399  0.00  0.00    -0.343 N 
ATOM     18  C5   11 d           4.408  10.158  -6.554  0.00  0.00     0.101 A 
ATOM     19  N2   11 d           5.488  10.941  -6.349  0.00  0.00    -0.246 NA
ATOM     20  C8   11 d           3.946   9.756  -7.920  0.00  0.00     0.091 C 
ATOM     21  C6   11 d           5.504  11.276  -5.047  0.00  0.00     0.136 A 
ATOM     22  C7   11 d           4.390  10.726  -4.447  0.00  0.00     0.111 A 
ENDBRANCH  16  17
ENDBRANCH   4  16
TORSDOF 2
