REMARK  6 active torsions:
REMARK  status: ('A' for Active; 'I' for Inactive)
REMARK    1  A    between atoms: C1_1  and  C2_2 
REMARK    2  A    between atoms: C1_1  and  O4_20 
REMARK    3  A    between atoms: C5_5  and  N1_6 
REMARK    4  A    between atoms: C6_7  and  C7_8 
REMARK    5  A    between atoms: C8_9  and  O2_16 
REMARK    6  A    between atoms: C9_10  and  O1_11 
ROOT
ATOM      1  N1   11 d          -3.087 -11.451  -3.978  0.00  0.00    -0.260 NA
ATOM      2  C6   11 d          -4.194 -11.612  -4.676  0.00  0.00     0.131 C 
ENDROOT
BRANCH   1   3
ATOM      3  C5   11 d          -1.836 -11.010  -4.555  0.00  0.00     0.056 A 
ATOM      4  C4   11 d          -1.743  -9.959  -5.490  0.00  0.00     0.032 A 
ATOM      5  C3   11 d          -0.493  -9.559  -5.987  0.00  0.00     0.020 A 
ATOM      6  C2   11 d           0.691 -10.186  -5.542  0.00  0.00     0.039 A 
ATOM      7  C15  11 d           0.593 -11.221  -4.590  0.00  0.00     0.020 A 
ATOM      8  C14  11 d          -0.658 -11.622  -4.099  0.00  0.00     0.032 A 
BRANCH   6   9
ATOM      9  C1   11 d           2.025  -9.757  -6.049  0.00  0.00     0.292 C 
ATOM     10  O3   11 d           2.112  -8.881  -6.947  0.00  0.00    -0.259 OA
BRANCH   9  11
ATOM     11  O4   11 d           3.212 -10.402  -5.599  0.00  0.00    -0.323 OA
ATOM     12  C16  11 d           3.851  -9.591  -4.583  0.00  0.00     0.213 C 
ENDBRANCH   9  11
ENDBRANCH   6   9
ENDBRANCH   1   3
BRANCH   2  13
ATOM     13  C7   11 d          -4.368 -11.535  -6.155  0.00  0.00     0.017 A 
ATOM     14  C8   11 d          -3.487 -12.145  -7.082  0.00  0.00     0.110 A 
ATOM     15  C9   11 d          -3.731 -12.014  -8.473  0.00  0.00     0.102 A 
ATOM     16  C11  11 d          -4.878 -11.342  -8.922  0.00  0.00     0.040 A 
ATOM     17  C12  11 d          -5.760 -10.760  -8.006  0.00  0.00     0.004 A 
ATOM     18  C13  11 d          -5.508 -10.857  -6.632  0.00  0.00     0.016 A 
BRANCH  14  19
ATOM     19  O2   11 d          -2.401 -12.938  -6.619  0.00  0.00    -0.357 OA
ATOM     20  H10  11 d          -2.459 -13.836  -7.134  0.00  0.00     0.217 HD
ENDBRANCH  14  19
BRANCH  15  21
ATOM     21  O1   11 d          -2.913 -12.681  -9.428  0.00  0.00    -0.353 OA
ATOM     22  C10  11 d          -1.796 -11.826  -9.780  0.00  0.00     0.210 C 
ENDBRANCH  15  21
ENDBRANCH   2  13
TORSDOF 6
