REMARK  4 active torsions:
REMARK  status: ('A' for Active; 'I' for Inactive)
REMARK    1  A    between atoms: N2_12  and  N3_13 
REMARK    2  A    between atoms: N3_13  and  C9_14 
REMARK    3  A    between atoms: C12_17  and  S1_18 
REMARK    4  A    between atoms: S1_18  and  N4_21 
ROOT
ATOM      1  N3   11 d           2.755  -9.260  -4.558  0.00  0.00    -0.278 N 
ATOM      2  H5   11 d           2.861  -8.598  -3.821  0.00  0.00     0.189 HD
ENDROOT
BRANCH   1   3
ATOM      3  N2   11 d           3.822  -9.579  -5.268  0.00  0.00    -0.168 NA
ATOM      4  C1   11 d           4.185  -8.826  -6.286  0.00  0.00     0.157 A 
ATOM      5  C2   11 d           5.413  -9.042  -7.074  0.00  0.00     0.277 A 
ATOM      6  C4   11 d           3.529  -7.653  -6.916  0.00  0.00     0.028 A 
ATOM      7  O1   11 d           6.288  -9.954  -6.871  0.00  0.00    -0.266 OA
ATOM      8  N1   11 d           5.506  -8.093  -8.106  0.00  0.00    -0.321 N 
ATOM      9  C3   11 d           4.331  -7.256  -7.989  0.00  0.00     0.048 A 
ATOM     10  H1   11 d           6.285  -8.000  -8.838  0.00  0.00     0.169 HD
ATOM     11  C8   11 d           3.974  -6.182  -8.811  0.00  0.00     0.032 A 
ATOM     12  C7   11 d           2.765  -5.511  -8.557  0.00  0.00     0.021 A 
ATOM     13  C6   11 d           1.943  -5.909  -7.482  0.00  0.00     0.011 A 
ATOM     14  C5   11 d           2.326  -6.976  -6.647  0.00  0.00     0.035 A 
ATOM     15 Br1   11 d           0.275  -4.997  -7.164  0.00  0.00    -0.051 Br
ENDBRANCH   1   3
BRANCH   1  16
ATOM     16  C9   11 d           1.509  -9.825  -4.787  0.00  0.00     0.050 A 
ATOM     17  C10  11 d           0.636 -10.014  -3.698  0.00  0.00     0.032 A 
ATOM     18  C11  11 d          -0.648 -10.543  -3.894  0.00  0.00     0.027 A 
ATOM     19  C12  11 d          -1.089 -10.865  -5.189  0.00  0.00     0.074 A 
ATOM     20  C13  11 d          -0.222 -10.688  -6.279  0.00  0.00     0.027 A 
ATOM     21  C14  11 d           1.074 -10.186  -6.080  0.00  0.00     0.032 A 
BRANCH  19  22
ATOM     22  S1   11 d          -2.753 -11.484  -5.467  0.00  0.00     0.239 S 
ATOM     23  O2   11 d          -3.530 -10.487  -6.330  0.00  0.00    -0.206 OA
ATOM     24  O3   11 d          -3.509 -11.605  -4.141  0.00  0.00    -0.206 OA
BRANCH  22  25
ATOM     25  N4   11 d          -2.764 -13.041  -6.265  0.00  0.00    -0.225 NA
ATOM     26  H8   11 d          -3.775 -13.387  -6.229  0.00  0.00     0.136 HD
ATOM     27  H9   11 d          -2.547 -12.854  -7.295  0.00  0.00     0.136 HD
ENDBRANCH  22  25
ENDBRANCH  19  22
ENDBRANCH   1  16
TORSDOF 4
