REMARK  5 active torsions:
REMARK  status: ('A' for Active; 'I' for Inactive)
REMARK    1  A    between atoms: C1_1  and  C2_4 
REMARK    2  A    between atoms: C2_4  and  P1_5 
REMARK    3  A    between atoms: P1_5  and  C3_6 
REMARK    4  A    between atoms: P1_5  and  C9_13 
REMARK    5  A    between atoms: C9_13  and  C10_14 
ROOT
ATOM      1  P1   11 d           5.143  -8.839  -7.171  0.00  0.00     0.118 P 
ATOM      2  O3   11 d           4.585  -8.841  -8.496  0.00  0.00    -0.316 OA
ENDROOT
BRANCH   1   3
ATOM      3  C2   11 d           3.915  -8.961  -6.023  0.00  0.00     0.191 C 
BRANCH   3   4
ATOM      4  C1   11 d           3.223  -7.684  -5.663  0.00  0.00     0.180 C 
ATOM      5  O1   11 d           2.077  -7.380  -6.215  0.00  0.00    -0.648 OA
ATOM      6  O2   11 d           3.656  -6.979  -4.649  0.00  0.00    -0.648 OA
ENDBRANCH   3   4
ENDBRANCH   1   3
BRANCH   1   7
ATOM      7  C3   11 d           6.059 -10.220  -7.017  0.00  0.00     0.004 A 
ATOM      8  C4   11 d           5.445 -11.473  -7.246  0.00  0.00     0.015 A 
ATOM      9  C5   11 d           6.175 -12.665  -7.130  0.00  0.00     0.001 A 
ATOM     10  C6   11 d           7.530 -12.626  -6.779  0.00  0.00     0.000 A 
ATOM     11  C7   11 d           8.155 -11.395  -6.540  0.00  0.00     0.001 A 
ATOM     12  C8   11 d           7.428 -10.200  -6.656  0.00  0.00     0.015 A 
ENDBRANCH   1   7
BRANCH   1  13
ATOM     13  C9   11 d           6.066  -7.439  -6.978  0.00  0.00     0.078 C 
BRANCH  13  14
ATOM     14  C10  11 d           5.433  -6.154  -7.545  0.00  0.00     0.003 C 
ATOM     15  C11  11 d           6.375  -4.957  -7.425  0.00  0.00     0.005 C 
ENDBRANCH  13  14
ENDBRANCH   1  13
TORSDOF 5
