REMARK  2 active torsions:
REMARK  status: ('A' for Active; 'I' for Inactive)
REMARK    1  A    between atoms: C10_13  and  C11_14 
REMARK       I    between atoms: C11_14  and  N3_16 
REMARK    2  A    between atoms: N3_16  and  C12_17 
ROOT
ATOM      1  C1   11 d          -2.591   4.495   3.190  0.00  0.00     0.262 A 
ATOM      2  C2   11 d          -2.090   3.393   3.903  0.00  0.00     0.075 A 
ATOM      3  C3   11 d          -2.643   2.163   3.653  0.00  0.00     0.116 A 
ATOM      4  N1   11 d          -3.648   1.982   2.773  0.00  0.00    -0.227 NA
ATOM      5  C4   11 d          -4.179   3.048   2.101  0.00  0.00     0.110 A 
ATOM      6  N2   11 d          -3.634   4.324   2.284  0.00  0.00    -0.301 N 
ATOM      7  C5   11 d          -4.161   5.551   1.614  0.00  0.00     0.133 C 
ATOM      8  C6   11 d          -5.641   5.547   1.218  0.00  0.00     0.020 C 
ATOM      9  C7   11 d          -5.917   4.809  -0.096  0.00  0.00     0.002 C 
ATOM     10  C8   11 d          -5.185   3.470  -0.233  0.00  0.00     0.008 C 
ATOM     11  C9   11 d          -5.203   2.645   1.056  0.00  0.00     0.079 C 
ATOM     12  S1   11 d          -1.962   1.129   4.481  0.00  0.00    -0.063 SA
ATOM     13  C10  11 d          -0.942   1.926   5.254  0.00  0.00     0.082 A 
ATOM     14  C18  11 d          -1.061   3.281   4.864  0.00  0.00    -0.021 A 
ATOM     15  C19  11 d          -0.370   4.444   5.531  0.00  0.00     0.051 C 
ATOM     16  O2   11 d          -2.055   5.624   3.341  0.00  0.00    -0.267 OA
ENDROOT
BRANCH  13  17
ATOM     17  C11  11 d           0.021   1.328   6.237  0.00  0.00     0.263 C 
ATOM     18  O1   11 d           0.914   2.085   6.750  0.00  0.00    -0.267 OA
ATOM     19  N3   11 d          -0.046  -0.063   6.599  0.00  0.00    -0.323 N 
ATOM     20  H11  11 d          -0.814  -0.653   6.137  0.00  0.00     0.169 HD
BRANCH  19  21
ATOM     21  C12  11 d           0.832  -0.789   7.548  0.00  0.00     0.035 A 
ATOM     22  C13  11 d           0.574  -2.167   7.729  0.00  0.00     0.029 A 
ATOM     23  C14  11 d           1.350  -2.944   8.602  0.00  0.00     0.002 A 
ATOM     24  C15  11 d           2.400  -2.357   9.316  0.00  0.00     0.000 A 
ATOM     25  C16  11 d           2.674  -0.993   9.155  0.00  0.00     0.002 A 
ATOM     26  C17  11 d           1.901  -0.214   8.280  0.00  0.00     0.029 A 
ENDBRANCH  19  21
ENDBRANCH  13  17
TORSDOF 2
