REMARK  5 active torsions:
REMARK  status: ('A' for Active; 'I' for Inactive)
REMARK    1  A    between atoms: C5_7  and  C6_8 
REMARK    2  A    between atoms: N5_17  and  C10_18 
REMARK    3  A    between atoms: C10_18  and  C11_19 
REMARK    4  A    between atoms: C11_19  and  C12_20 
REMARK    5  A    between atoms: C17_25  and  O1_26 
ROOT
ATOM      1  C1   11 d           2.003   0.384  -0.725  0.00  0.00     0.261 A 
ATOM      2  C2   11 d           0.599   0.299  -0.786  0.00  0.00     0.080 A 
ATOM      3  C3   11 d          -0.147   0.392   0.417  0.00  0.00     0.095 A 
ATOM      4  N1   11 d          -1.510   0.377   0.328  0.00  0.00    -0.057 N 
ATOM      5  C4   11 d          -2.148   0.244  -0.847  0.00  0.00     0.751 A 
ATOM      6  N2   11 d          -3.471   0.267  -0.637  0.00  0.00    -0.034 NA
ATOM      7  C5   11 d          -3.610   0.468   0.698  0.00  0.00     0.272 A 
ATOM      8  N3   11 d          -2.382   0.486   1.280  0.00  0.00    -0.126 NA
ATOM      9  N4   11 d          -1.475   0.114  -2.018  0.00  0.00    -0.072 NA
ATOM     10  C7   11 d          -0.107   0.145  -2.003  0.00  0.00     0.156 A 
ATOM     11  C8   11 d           0.523   0.509   1.642  0.00  0.00     0.050 A 
ATOM     12  C9   11 d           1.921   0.554   1.660  0.00  0.00     0.096 A 
ATOM     13  N5   11 d           2.648   0.520   0.491  0.00  0.00    -0.323 N 
ATOM     14  O2   11 d           2.668   0.363  -1.794  0.00  0.00    -0.267 OA
ENDROOT
BRANCH  13  15
ATOM     15  C10  11 d           4.115   0.687   0.555  0.00  0.00     0.136 C 
BRANCH  15  16
ATOM     16  C11  11 d           4.883  -0.526   0.007  0.00  0.00     0.061 C 
BRANCH  16  17
ATOM     17  C12  11 d           6.318  -0.536   0.439  0.00  0.00    -0.029 A 
ATOM     18  C13  11 d           7.327   0.351   0.084  0.00  0.00     0.001 A 
ATOM     19  C14  11 d           8.497  -0.103   0.660  0.00  0.00     0.043 A 
ATOM     20  C19  11 d           7.302   1.525  -0.686  0.00  0.00     0.051 A 
ATOM     21  C15  11 d           9.709   0.579   0.493  0.00  0.00     0.033 A 
ATOM     22  N6   11 d           8.239  -1.227   1.351  0.00  0.00    -0.365 N 
ATOM     23  C16  11 d           9.705   1.765  -0.266  0.00  0.00     0.039 A 
ATOM     24  C17  11 d           8.510   2.225  -0.874  0.00  0.00     0.069 A 
ATOM     25  C20  11 d           6.922  -1.510   1.230  0.00  0.00     0.096 A 
ATOM     26  H14  11 d           8.941  -1.797   1.889  0.00  0.00     0.165 HD
BRANCH  24  27
ATOM     27  O1   11 d           8.507   3.470  -1.560  0.00  0.00    -0.356 OA
ATOM     28  C18  11 d           8.788   3.249  -2.964  0.00  0.00     0.210 C 
ENDBRANCH  24  27
ENDBRANCH  16  17
ENDBRANCH  15  16
ENDBRANCH  13  15
BRANCH   7  29
ATOM     29  C6   11 d          -4.910   0.419   1.446  0.00  0.00     0.455 C 
ATOM     30  F1   11 d          -4.718  -0.088   2.728  0.00  0.00    -0.163 F 
ATOM     31  F2   11 d          -5.829  -0.389   0.781  0.00  0.00    -0.163 F 
ATOM     32  F3   11 d          -5.432   1.705   1.548  0.00  0.00    -0.163 F 
ENDBRANCH   7  29
TORSDOF 5
