REMARK  3 active torsions:
REMARK  status: ('A' for Active; 'I' for Inactive)
REMARK       I    between atoms: C1_1  and  N1_3 
REMARK       I    between atoms: C1_1  and  N2_10 
REMARK    1  A    between atoms: N1_3  and  C2_4 
REMARK    2  A    between atoms: N2_10  and  N3_11 
REMARK    3  A    between atoms: C8_12  and  C9_13 
ROOT
ATOM      1  C1   11 d           3.025  -8.932  -5.501  0.00  0.00     0.341 C 
ATOM      2  O1   11 d           4.197  -8.446  -5.641  0.00  0.00    -0.245 OA
ATOM      3  N1   11 d           2.708  -9.773  -4.388  0.00  0.00    -0.308 N 
ATOM      4  N2   11 d           1.982  -8.654  -6.450  0.00  0.00    -0.229 N 
ATOM      5  H1   11 d           1.701 -10.143  -4.343  0.00  0.00     0.170 HD
ATOM      6  H7   11 d           1.020  -9.094  -6.271  0.00  0.00     0.194 HD
ENDROOT
BRANCH   3   7
ATOM      7  C2   11 d           3.608 -10.192  -3.288  0.00  0.00     0.036 A 
ATOM      8  C3   11 d           3.055 -11.031  -2.295  0.00  0.00     0.029 A 
ATOM      9  C4   11 d           3.822 -11.472  -1.206  0.00  0.00     0.002 A 
ATOM     10  C5   11 d           5.161 -11.083  -1.090  0.00  0.00     0.000 A 
ATOM     11  C6   11 d           5.732 -10.255  -2.063  0.00  0.00     0.002 A 
ATOM     12  C7   11 d           4.966  -9.812  -3.154  0.00  0.00     0.029 A 
ENDBRANCH   3   7
BRANCH   4  13
ATOM     13  N3   11 d           2.026  -7.865  -7.620  0.00  0.00    -0.180 NA
ATOM     14  C8   11 d           3.093  -7.238  -8.060  0.00  0.00     0.175 C 
BRANCH  14  15
ATOM     15  C9   11 d           3.006  -6.404  -9.274  0.00  0.00     0.094 A 
ATOM     16  O2   11 d           1.895  -6.184  -9.938  0.00  0.00    -0.321 OA
ATOM     17  C10  11 d           2.187  -5.392 -10.941  0.00  0.00     0.142 A 
ATOM     18  C11  11 d           3.534  -5.077 -10.949  0.00  0.00     0.027 A 
ATOM     19  C12  11 d           4.070  -5.737  -9.861  0.00  0.00     0.040 A 
ENDBRANCH  14  15
ENDBRANCH   4  13
TORSDOF 3
