REMARK  2 active torsions:
REMARK  status: ('A' for Active; 'I' for Inactive)
REMARK    1  A    between atoms: C6_8  and  O2_9 
REMARK    2  A    between atoms: C10_13  and  C11_14 
ROOT
ATOM      1  C1   11 d          -5.327  -7.548   1.798  0.00  0.00     0.047 A 
ATOM      2  C2   11 d          -4.526  -6.314   2.036  0.00  0.00     0.257 A 
ATOM      3  O1   11 d          -4.703  -5.456   2.967  0.00  0.00    -0.267 OA
ATOM      4  N1   11 d          -3.507  -6.193   1.078  0.00  0.00    -0.322 N 
ATOM      5  C3   11 d          -3.624  -7.341   0.211  0.00  0.00     0.046 A 
ATOM      6  C4   11 d          -4.672  -8.162   0.619  0.00  0.00     0.009 A 
ATOM      7  C5   11 d          -4.960  -9.344  -0.086  0.00  0.00     0.051 A 
ATOM      8  C6   11 d          -4.169  -9.687  -1.200  0.00  0.00     0.069 A 
ATOM      9  C8   11 d          -3.131  -8.828  -1.623  0.00  0.00     0.039 A 
ATOM     10  C9   11 d          -2.838  -7.654  -0.904  0.00  0.00     0.033 A 
ATOM     11  C10  11 d          -6.411  -8.058   2.435  0.00  0.00     0.051 C 
ATOM     12  H1   11 d          -2.778  -5.408   0.995  0.00  0.00     0.169 HD
ENDROOT
BRANCH  11  13
ATOM     13  C11  11 d          -7.139  -7.458   3.582  0.00  0.00     0.074 A 
ATOM     14  C12  11 d          -8.231  -8.032   4.218  0.00  0.00     0.120 A 
ATOM     15  N2   11 d          -8.626  -7.185   5.190  0.00  0.00    -0.358 N 
ATOM     16  C13  11 d          -7.810  -6.111   5.170  0.00  0.00     0.207 A 
ATOM     17  H10  11 d          -9.431  -7.331   5.852  0.00  0.00     0.166 HD
ATOM     18  N3   11 d          -6.904  -6.276   4.188  0.00  0.00    -0.243 NA
ENDBRANCH  11  13
BRANCH   8  19
ATOM     19  O2   11 d          -4.516 -10.828  -1.969  0.00  0.00    -0.356 OA
ATOM     20  C7   11 d          -3.611 -11.922  -1.673  0.00  0.00     0.210 C 
ENDBRANCH   8  19
TORSDOF 2
