REMARK  4 active torsions:
REMARK  status: ('A' for Active; 'I' for Inactive)
REMARK    1  A    between atoms: C4_6  and  S1_7 
REMARK    2  A    between atoms: S1_7  and  C5_8 
REMARK    3  A    between atoms: C5_8  and  C6_9 
REMARK       I    between atoms: C6_9  and  N2_11 
REMARK    4  A    between atoms: N2_11  and  C7_12 
ROOT
ATOM      1  S1   11 d           2.030   4.263   2.598  0.00  0.00    -0.145 SA
ENDROOT
BRANCH   1   2
ATOM      2  C4   11 d           3.593   3.312   2.332  0.00  0.00     0.149 A 
ATOM      3  C3   11 d           3.539   2.487   1.044  0.00  0.00     0.128 A 
ATOM      4  C2   11 d           4.722   2.953   0.269  0.00  0.00     0.232 A 
ATOM      5  N1   11 d           5.475   3.977   0.902  0.00  0.00    -0.251 N 
ATOM      6  O1   11 d           4.994   2.445  -0.872  0.00  0.00    -0.273 OA
ATOM      7  C1   11 d           4.789   4.191   2.128  0.00  0.00     0.245 A 
ATOM      8  C17  11 d           6.704   4.668   0.394  0.00  0.00     0.045 A 
ATOM      9  O3   11 d           5.140   5.043   3.015  0.00  0.00    -0.271 OA
ATOM     10  C18  11 d           7.288   4.331  -0.856  0.00  0.00     0.031 A 
ATOM     11  C22  11 d           7.348   5.691   1.139  0.00  0.00     0.031 A 
ATOM     12  C19  11 d           8.444   4.972  -1.328  0.00  0.00     0.021 A 
ATOM     13  C20  11 d           9.053   5.974  -0.569  0.00  0.00     0.011 A 
ATOM     14 Br1   11 d          10.641   6.855  -1.218  0.00  0.00    -0.051 Br
ATOM     15  C21  11 d           8.502   6.334   0.664  0.00  0.00     0.021 A 
ENDBRANCH   1   2
BRANCH   1  16
ATOM     16  C5   11 d           2.225   4.510   4.418  0.00  0.00     0.177 C 
BRANCH  16  17
ATOM     17  C6   11 d           1.001   5.065   5.100  0.00  0.00     0.231 C 
ATOM     18  O2   11 d          -0.140   4.961   4.530  0.00  0.00    -0.272 OA
ATOM     19  N2   11 d           1.153   5.704   6.372  0.00  0.00    -0.327 N 
ATOM     20  H6   11 d           2.152   5.743   6.766  0.00  0.00     0.169 HD
BRANCH  19  21
ATOM     21  C7   11 d           0.095   6.313   7.209  0.00  0.00     0.035 A 
ATOM     22  C8   11 d           0.498   6.869   8.442  0.00  0.00     0.042 A 
ATOM     23  C9   11 d          -0.432   7.450   9.324  0.00  0.00    -0.024 A 
ATOM     24  C10  11 d          -1.804   7.489   8.968  0.00  0.00    -0.026 A 
ATOM     25  C16  11 d          -0.018   7.987  10.559  0.00  0.00     0.012 A 
ATOM     26  C11  11 d          -2.214   6.949   7.738  0.00  0.00     0.014 A 
ATOM     27  C13  11 d          -2.739   8.066   9.851  0.00  0.00     0.012 A 
ATOM     28  C12  11 d          -1.278   6.368   6.869  0.00  0.00     0.030 A 
ATOM     29  C14  11 d          -2.314   8.596  11.078  0.00  0.00     0.001 A 
ATOM     30  C15  11 d          -0.957   8.557  11.431  0.00  0.00     0.001 A 
ENDBRANCH  19  21
ENDBRANCH  16  17
ENDBRANCH   1  16
TORSDOF 4
