REMARK  1 active torsions:
REMARK  status: ('A' for Active; 'I' for Inactive)
REMARK    1  A    between atoms: C3_3  and  N3_15 
ROOT
ATOM      1  C1   11 d          -6.730  -1.908   1.024  0.00  0.00    -0.028 A 
ATOM      2  C2   11 d          -6.544  -3.084   1.845  0.00  0.00     0.053 A 
ATOM      3  C3   11 d          -6.858  -4.441   1.724  0.00  0.00     0.137 A 
ATOM      4  N1   11 d          -6.513  -5.325   2.668  0.00  0.00    -0.216 NA
ATOM      5  C4   11 d          -5.884  -4.872   3.764  0.00  0.00     0.125 A 
ATOM      6  N2   11 d          -5.527  -3.608   4.001  0.00  0.00    -0.226 NA
ATOM      7  C5   11 d          -5.882  -2.762   3.023  0.00  0.00     0.114 A 
ATOM      8  S1   11 d          -5.532  -1.101   3.157  0.00  0.00    -0.073 SA
ATOM      9  C6   11 d          -6.242  -0.773   1.649  0.00  0.00    -0.008 A 
ATOM     10  C7   11 d          -6.268   0.615   1.085  0.00  0.00     0.047 C 
ATOM     11  C8   11 d          -7.251   0.698  -0.090  0.00  0.00     0.005 C 
ATOM     12  C9   11 d          -7.092  -0.496  -1.039  0.00  0.00     0.005 C 
ATOM     13  C10  11 d          -7.378  -1.829  -0.330  0.00  0.00     0.041 C 
ATOM     14  C11  11 d          -5.542  -5.840   4.824  0.00  0.00     0.093 C 
ENDROOT
BRANCH   3  15
ATOM     15  N3   11 d          -7.568  -4.953   0.579  0.00  0.00    -0.383 N 
ATOM     16  H    11 d          -7.871  -4.282  -0.214  0.00  0.00     0.157 HD
ATOM     17  H    11 d          -7.797  -6.009   0.512  0.00  0.00     0.157 HD
ENDBRANCH   3  15
TORSDOF 1
