REMARK  6 active torsions:
REMARK  status: ('A' for Active; 'I' for Inactive)
REMARK    1  A    between atoms: C1_1  and  C2_2 
REMARK       I    between atoms: C1_1  and  N1_14 
REMARK    2  A    between atoms: C3_3  and  O1_12 
REMARK    3  A    between atoms: N1_14  and  N2_15 
REMARK    4  A    between atoms: C12_16  and  C13_17 
REMARK    5  A    between atoms: C16_20  and  O3_21 
REMARK    6  A    between atoms: O3_21  and  C17_22 
ROOT
ATOM      1  C1   11 d          -4.686   1.263  -0.974  0.00  0.00     0.274 C 
ATOM      2  O2   11 d          -5.891   1.380  -1.399  0.00  0.00    -0.266 OA
ATOM      3  N1   11 d          -4.365   1.815   0.304  0.00  0.00    -0.243 N 
ATOM      4  H8   11 d          -3.387   1.771   0.746  0.00  0.00     0.192 HD
ENDROOT
BRANCH   1   5
ATOM      5  C2   11 d          -3.671   0.565  -1.827  0.00  0.00     0.067 A 
ATOM      6  C3   11 d          -3.845   0.473  -3.232  0.00  0.00     0.082 A 
ATOM      7  C4   11 d          -2.909  -0.207  -4.023  0.00  0.00     0.049 A 
ATOM      8  C5   11 d          -1.766  -0.780  -3.446  0.00  0.00    -0.023 A 
ATOM      9  C6   11 d          -1.567  -0.684  -2.045  0.00  0.00    -0.025 A 
ATOM     10  C11  11 d          -0.821  -1.455  -4.243  0.00  0.00     0.012 A 
ATOM     11  C7   11 d          -2.520  -0.019  -1.249  0.00  0.00     0.032 A 
ATOM     12  C8   11 d          -0.421  -1.265  -1.466  0.00  0.00     0.012 A 
ATOM     13  C9   11 d           0.515  -1.933  -2.270  0.00  0.00     0.001 A 
ATOM     14  C10  11 d           0.316  -2.029  -3.654  0.00  0.00     0.001 A 
BRANCH   6  15
ATOM     15  O1   11 d          -4.993   0.983  -3.884  0.00  0.00    -0.360 OA
ATOM     16  H7   11 d          -4.853   2.007  -3.945  0.00  0.00     0.217 HD
ENDBRANCH   6  15
ENDBRANCH   1   5
BRANCH   3  17
ATOM     17  N2   11 d          -5.392   2.443   1.011  0.00  0.00    -0.183 NA
ATOM     18  C12  11 d          -5.201   3.708   1.290  0.00  0.00     0.150 C 
BRANCH  18  19
ATOM     19  C13  11 d          -6.284   4.517   1.903  0.00  0.00    -0.017 A 
ATOM     20  C14  11 d          -7.594   4.005   2.027  0.00  0.00     0.015 A 
ATOM     21  C15  11 d          -8.626   4.811   2.528  0.00  0.00     0.037 A 
ATOM     22  C16  11 d          -8.361   6.122   2.948  0.00  0.00     0.068 A 
ATOM     23  C19  11 d          -7.062   6.641   2.826  0.00  0.00     0.037 A 
ATOM     24  C20  11 d          -6.027   5.841   2.313  0.00  0.00     0.015 A 
BRANCH  22  25
ATOM     25  O3   11 d          -9.434   6.965   3.339  0.00  0.00    -0.352 OA
BRANCH  25  26
ATOM     26  C17  11 d          -9.731   6.801   4.750  0.00  0.00     0.171 C 
ATOM     27  C18  11 d         -11.203   7.118   4.963  0.00  0.00     0.034 C 
ENDBRANCH  25  26
ENDBRANCH  22  25
ENDBRANCH  18  19
ENDBRANCH   3  17
TORSDOF 6
