REMARK  3 active torsions:
REMARK  status: ('A' for Active; 'I' for Inactive)
REMARK    1  A    between atoms: C2_2  and  C3_3 
REMARK       I    between atoms: C3_3  and  N1_5 
REMARK    2  A    between atoms: N1_5  and  C4_6 
REMARK    3  A    between atoms: C4_6  and  C5_7 
ROOT
ATOM      1  C1   11 d          -0.517  -3.172  -2.051  0.00  0.00     0.271 A 
ATOM      2  C2   11 d           0.712  -2.728  -2.599  0.00  0.00     0.117 A 
ATOM      3  C12  11 d           0.660  -1.848  -3.704  0.00  0.00     0.142 A 
ATOM      4  N2   11 d          -0.533  -1.440  -4.225  0.00  0.00    -0.235 NA
ATOM      5  C13  11 d          -1.682  -1.891  -3.668  0.00  0.00     0.180 A 
ATOM      6  N3   11 d          -1.692  -2.731  -2.606  0.00  0.00    -0.259 N 
ATOM      7  C14  11 d          -2.982  -2.996  -2.227  0.00  0.00     0.035 A 
ATOM      8  C15  11 d          -3.870  -2.362  -3.101  0.00  0.00     0.009 A 
ATOM      9  S1   11 d          -3.078  -1.558  -4.087  0.00  0.00    -0.054 SA
ATOM     10  C16  11 d          -5.367  -2.402  -2.971  0.00  0.00     0.048 C 
ATOM     11  C17  11 d          -5.783  -2.902  -1.577  0.00  0.00     0.006 C 
ATOM     12  C18  11 d          -4.981  -4.150  -1.162  0.00  0.00     0.006 C 
ATOM     13  C19  11 d          -3.464  -3.876  -1.097  0.00  0.00     0.059 C 
ATOM     14  O4   11 d          -0.531  -3.927  -1.045  0.00  0.00    -0.266 OA
ENDROOT
BRANCH   2  15
ATOM     15  C3   11 d           2.026  -3.176  -2.062  0.00  0.00     0.258 C 
ATOM     16  O1   11 d           2.150  -4.373  -1.618  0.00  0.00    -0.267 OA
ATOM     17  N1   11 d           3.152  -2.301  -2.037  0.00  0.00    -0.352 N 
ATOM     18  H1   11 d           3.053  -1.293  -2.394  0.00  0.00     0.163 HD
BRANCH  17  19
ATOM     19  C4   11 d           4.470  -2.777  -1.522  0.00  0.00     0.161 C 
BRANCH  19  20
ATOM     20  C5   11 d           5.515  -1.689  -1.561  0.00  0.00    -0.038 A 
ATOM     21  C6   11 d           6.169  -1.273  -0.377  0.00  0.00     0.048 A 
ATOM     22  C7   11 d           7.134  -0.263  -0.457  0.00  0.00     0.105 A 
ATOM     23  C8   11 d           7.455   0.324  -1.649  0.00  0.00     0.105 A 
ATOM     24  O3   11 d           7.899   0.243   0.605  0.00  0.00    -0.323 OA
ATOM     25  O2   11 d           8.465   1.287  -1.512  0.00  0.00    -0.323 OA
ATOM     26  C10  11 d           6.837  -0.067  -2.841  0.00  0.00     0.040 A 
ATOM     27  C9   11 d           8.776   1.188  -0.087  0.00  0.00     0.352 A 
ATOM     28  C11  11 d           5.861  -1.081  -2.794  0.00  0.00     0.012 A 
ENDBRANCH  19  20
ENDBRANCH  17  19
ENDBRANCH   2  15
TORSDOF 3
