REMARK  2 active torsions:
REMARK  status: ('A' for Active; 'I' for Inactive)
REMARK    1  A    between atoms: C1_1  and  C2_2 
REMARK       I    between atoms: C1_1  and  N1_9 
REMARK    2  A    between atoms: N1_9  and  C8_10 
ROOT
ATOM      1  C1   11 d           2.771  -9.780  -4.541  0.00  0.00     0.256 C 
ATOM      2  O1   11 d           3.269  -9.129  -5.524  0.00  0.00    -0.267 OA
ATOM      3  N1   11 d           3.599 -10.095  -3.406  0.00  0.00    -0.323 N 
ATOM      4  H6   11 d           3.156 -10.641  -2.601  0.00  0.00     0.169 HD
ENDROOT
BRANCH   3   5
ATOM      5  C8   11 d           5.028  -9.746  -3.211  0.00  0.00     0.036 A 
ATOM      6  C9   11 d           5.628 -10.168  -2.003  0.00  0.00     0.055 A 
ATOM      7  C10  11 d           6.973  -9.889  -1.715  0.00  0.00     0.058 A 
ATOM      8  C11  11 d           7.752  -9.173  -2.640  0.00  0.00     0.055 A 
ATOM      9 Cl2   11 d           7.653 -10.458  -0.166  0.00  0.00    -0.082 Cl
ATOM     10 Cl1   11 d           9.465  -8.788  -2.326  0.00  0.00    -0.083 Cl
ATOM     11  C12  11 d           7.176  -8.747  -3.844  0.00  0.00     0.028 A 
ATOM     12  C13  11 d           5.832  -9.028  -4.130  0.00  0.00     0.031 A 
ENDBRANCH   3   5
BRANCH   1  13
ATOM     13  C2   11 d           1.321 -10.185  -4.636  0.00  0.00     0.032 A 
ATOM     14  C3   11 d           0.586  -9.824  -5.793  0.00  0.00     0.017 A 
ATOM     15  C4   11 d          -0.766 -10.170  -5.934  0.00  0.00     0.001 A 
ATOM     16  C5   11 d          -1.415 -10.887  -4.924  0.00  0.00     0.000 A 
ATOM     17  C6   11 d          -0.712 -11.257  -3.772  0.00  0.00     0.001 A 
ATOM     18  C7   11 d           0.641 -10.912  -3.627  0.00  0.00     0.017 A 
ENDBRANCH   1  13
TORSDOF 2
