REMARK  3 active torsions:
REMARK  status: ('A' for Active; 'I' for Inactive)
REMARK    1  A    between atoms: C3_3  and  N1_4 
REMARK    2  A    between atoms: N1_4  and  C4_5 
REMARK    3  A    between atoms: C17_19  and  N3_20 
ROOT
ATOM      1  C1   11 d           0.477   6.923  -2.842  0.00  0.00    -0.019 A 
ATOM      2  C2   11 d           1.508   6.878  -1.907  0.00  0.00     0.073 A 
ATOM      3  C3   11 d           2.920   7.332  -2.187  0.00  0.00     0.238 C 
ATOM      4  C11  11 d           3.118   7.451  -3.724  0.00  0.00     0.040 C 
ATOM      5  C12  11 d           1.966   8.211  -4.418  0.00  0.00     0.007 C 
ATOM      6  C13  11 d           0.604   7.514  -4.219  0.00  0.00     0.042 C 
ATOM      7  N2   11 d           1.088   6.251  -0.783  0.00  0.00    -0.250 NA
ATOM      8  C14  11 d          -0.216   5.949  -0.971  0.00  0.00     0.068 A 
ATOM      9  C15  11 d          -0.622   6.363  -2.225  0.00  0.00     0.003 A 
ATOM     10  C16  11 d          -1.931   6.164  -2.680  0.00  0.00     0.050 A 
ATOM     11  C17  11 d          -2.865   5.520  -1.821  0.00  0.00     0.103 A 
ATOM     12  C18  11 d          -2.426   5.096  -0.532  0.00  0.00     0.038 A 
ATOM     13  C19  11 d          -1.100   5.308  -0.101  0.00  0.00     0.035 A 
ENDROOT
BRANCH   3  14
ATOM     14  N1   11 d           3.186   8.587  -1.398  0.00  0.00    -0.061 N 
ATOM     15  H2   11 d           2.530   9.371  -1.721  0.00  0.00     0.278 HD
ATOM     16  H3   11 d           2.911   8.379  -0.381  0.00  0.00     0.278 HD
BRANCH  14  17
ATOM     17  C4   11 d           4.620   9.056  -1.395  0.00  0.00     0.191 C 
ATOM     18  C5   11 d           4.955   9.963  -0.179  0.00  0.00     0.017 C 
ATOM     19  C6   11 d           4.575  11.354  -0.661  0.00  0.00     0.011 C 
ATOM     20  C10  11 d           6.479  10.100  -0.007  0.00  0.00     0.007 C 
ATOM     21  C7   11 d           5.506  11.259  -1.855  0.00  0.00    -0.012 C 
ATOM     22  C8   11 d           4.989   9.999  -2.565  0.00  0.00     0.038 C 
ATOM     23  C9   11 d           6.866  10.989  -1.193  0.00  0.00     0.005 C 
ENDBRANCH  14  17
ENDBRANCH   3  14
BRANCH  11  24
ATOM     24  N3   11 d          -4.181   5.298  -2.232  0.00  0.00    -0.116 N 
ATOM     25  O1   11 d          -4.559   5.721  -3.227  0.00  0.00    -0.532 OA
ATOM     26  O2   11 d          -5.026   4.791  -1.444  0.00  0.00    -0.532 OA
ENDBRANCH  11  24
TORSDOF 3
