REMARK  7 active torsions:
REMARK  status: ('A' for Active; 'I' for Inactive)
REMARK       I    between atoms: C1_1  and  N1_3 
REMARK    1  A    between atoms: C1_1  and  C13_16 
REMARK    2  A    between atoms: N1_3  and  C2_4 
REMARK    3  A    between atoms: C2_4  and  C3_5 
REMARK    4  A    between atoms: C3_5  and  O2_6 
REMARK    5  A    between atoms: O2_6  and  C4_7 
REMARK    6  A    between atoms: C5_8  and  C10_13 
REMARK    7  A    between atoms: C13_16  and  C14_17 
ROOT
ATOM      1  C1   11 d           5.240  -8.264  -5.416  0.00  0.00     0.218 C 
ATOM      2  O1   11 d           4.214  -8.934  -5.043  0.00  0.00    -0.274 OA
ATOM      3  N1   11 d           5.131  -7.300  -6.458  0.00  0.00    -0.359 N 
ATOM      4  H1   11 d           6.002  -6.745  -6.754  0.00  0.00     0.162 HD
ENDROOT
BRANCH   1   5
ATOM      5  C13  11 d           6.561  -8.496  -4.734  0.00  0.00     0.117 C 
BRANCH   5   6
ATOM      6  C14  11 d           7.357  -9.767  -5.163  0.00  0.00     0.066 A 
ATOM      7  C15  11 d           8.520  -9.954  -4.200  0.00  0.00    -0.015 A 
ATOM      8  C16  11 d           9.864  -9.936  -4.650  0.00  0.00     0.083 A 
ATOM      9  C26  11 d           8.269 -10.164  -2.822  0.00  0.00     0.011 A 
ATOM     10  O3   11 d          10.251  -9.782  -6.011  0.00  0.00    -0.310 OA
ATOM     11  C23  11 d          10.912 -10.078  -3.725  0.00  0.00     0.038 A 
ATOM     12  C17  11 d           9.190  -9.663  -6.954  0.00  0.00     0.083 A 
ATOM     13  C18  11 d           7.813  -9.677  -6.615  0.00  0.00    -0.015 A 
ATOM     14  C22  11 d           9.579  -9.528  -8.297  0.00  0.00     0.038 A 
ATOM     15  C19  11 d           6.863  -9.632  -7.663  0.00  0.00     0.011 A 
ATOM     16  C20  11 d           7.264  -9.500  -8.999  0.00  0.00     0.001 A 
ATOM     17  C21  11 d           8.623  -9.436  -9.316  0.00  0.00     0.003 A 
ATOM     18  C24  11 d          10.647 -10.262  -2.362  0.00  0.00     0.003 A 
ATOM     19  C25  11 d           9.324 -10.312  -1.912  0.00  0.00     0.001 A 
ENDBRANCH   5   6
ENDBRANCH   1   5
BRANCH   3  20
ATOM     20  C2   11 d           3.846  -7.024  -7.165  0.00  0.00     0.149 C 
BRANCH  20  21
ATOM     21  C3   11 d           3.025  -5.939  -6.460  0.00  0.00     0.195 C 
BRANCH  21  22
ATOM     22  O2   11 d           2.539  -4.984  -7.444  0.00  0.00    -0.349 OA
BRANCH  22  23
ATOM     23  C4   11 d           1.545  -4.143  -6.868  0.00  0.00     0.075 A 
ATOM     24  C5   11 d           0.173  -4.317  -7.181  0.00  0.00    -0.021 A 
ATOM     25  C6   11 d          -0.767  -3.414  -6.630  0.00  0.00     0.010 A 
ATOM     26  C7   11 d          -0.352  -2.358  -5.807  0.00  0.00     0.001 A 
ATOM     27  C8   11 d           1.009  -2.175  -5.534  0.00  0.00     0.003 A 
ATOM     28  C9   11 d           1.954  -3.056  -6.075  0.00  0.00     0.037 A 
BRANCH  24  29
ATOM     29  C10  11 d          -0.284  -5.408  -8.142  0.00  0.00     0.013 C 
ATOM     30  C11  11 d          -1.073  -4.844  -9.334  0.00  0.00     0.015 C 
ATOM     31  C12  11 d          -1.072  -6.496  -7.405  0.00  0.00     0.015 C 
ENDBRANCH  24  29
ENDBRANCH  22  23
ENDBRANCH  21  22
ENDBRANCH  20  21
ENDBRANCH   3  20
TORSDOF 7
