REMARK  2 active torsions:
REMARK  status: ('A' for Active; 'I' for Inactive)
REMARK    1  A    between atoms: C5_5  and  O1_6 
REMARK    2  A    between atoms: C16_17  and  N1_18 
REMARK       I    between atoms: N2_23  and  C19_24 
ROOT
ATOM      1  C1   11 d          -3.404   4.604  -2.680  0.00  0.00     0.072 C 
ATOM      2  C2   11 d          -4.419   4.155  -3.669  0.00  0.00    -0.003 A 
ATOM      3  C3   11 d          -3.998   3.368  -4.773  0.00  0.00    -0.043 A 
ATOM      4  C4   11 d          -4.966   2.853  -5.657  0.00  0.00     0.044 A 
ATOM      5  C5   11 d          -6.322   3.183  -5.507  0.00  0.00     0.068 A 
ATOM      6  C7   11 d          -6.731   3.965  -4.417  0.00  0.00     0.037 A 
ATOM      7  C8   11 d          -5.786   4.456  -3.506  0.00  0.00     0.017 A 
ATOM      8  C9   11 d          -2.550   2.934  -4.920  0.00  0.00     0.040 C 
ATOM      9  C10  11 d          -1.784   2.928  -3.587  0.00  0.00     0.018 C 
ATOM     10  C11  11 d          -1.955   4.278  -2.864  0.00  0.00     0.070 C 
ATOM     11  C12  11 d          -1.407   4.464  -1.442  0.00  0.00     0.156 C 
ATOM     12  C13  11 d          -1.088   3.164  -0.720  0.00  0.00    -0.032 A 
ATOM     13  C14  11 d          -2.084   2.432  -0.042  0.00  0.00     0.012 A 
ATOM     14  C15  11 d          -1.758   1.268   0.669  0.00  0.00     0.037 A 
ATOM     15  C16  11 d          -0.422   0.810   0.742  0.00  0.00     0.102 A 
ATOM     16  C17  11 d           0.577   1.573   0.095  0.00  0.00     0.037 A 
ATOM     17  C18  11 d           0.250   2.738  -0.615  0.00  0.00     0.012 A 
ATOM     18  N2   11 d          -2.532   5.202  -0.800  0.00  0.00    -0.228 N 
ATOM     19  C19  11 d          -2.463   5.849   0.467  0.00  0.00     0.236 C 
ATOM     20  O4   11 d          -1.361   5.840   1.123  0.00  0.00    -0.272 OA
ATOM     21  C20  11 d          -3.639   6.590   1.027  0.00  0.00     0.119 C 
ATOM     22  N3   11 d          -3.697   5.201  -1.562  0.00  0.00    -0.172 NA
ENDROOT
BRANCH  15  23
ATOM     23  N1   11 d          -0.089  -0.353   1.443  0.00  0.00    -0.116 N 
ATOM     24  O2   11 d          -0.908  -1.003   1.911  0.00  0.00    -0.532 OA
ATOM     25  O3   11 d           1.086  -0.812   1.409  0.00  0.00    -0.532 OA
ENDBRANCH  15  23
BRANCH   5  26
ATOM     26  O1   11 d          -7.291   2.603  -6.367  0.00  0.00    -0.356 OA
ATOM     27  C6   11 d          -7.528   3.483  -7.493  0.00  0.00     0.210 C 
ENDBRANCH   5  26
TORSDOF 2
