REMARK  5 active torsions:
REMARK  status: ('A' for Active; 'I' for Inactive)
REMARK    1  A    between atoms: C1_1  and  C2_2 
REMARK       I    between atoms: C1_1  and  N3_8 
REMARK    2  A    between atoms: N3_8  and  N4_9 
REMARK    3  A    between atoms: C5_10  and  C6_11 
REMARK    4  A    between atoms: C7_12  and  O2_13 
REMARK    5  A    between atoms: C10_16  and  O3_17 
ROOT
ATOM      1  N4   11 d           6.376   6.438  -5.344  0.00  0.00    -0.183 NA
ATOM      2  C5   11 d           5.609   6.564  -6.402  0.00  0.00     0.153 C 
ENDROOT
BRANCH   1   3
ATOM      3  N3   11 d           5.817   5.733  -4.271  0.00  0.00    -0.242 N 
ATOM      4  C1   11 d           5.458   4.353  -4.370  0.00  0.00     0.292 C 
ATOM      5  O1   11 d           5.660   3.723  -5.471  0.00  0.00    -0.264 OA
ATOM      6  H4   11 d           5.670   6.286  -3.362  0.00  0.00     0.192 HD
BRANCH   4   7
ATOM      7  C2   11 d           4.851   3.633  -3.224  0.00  0.00     0.147 A 
ATOM      8  C3   11 d           4.340   4.185  -2.059  0.00  0.00     0.058 A 
ATOM      9  C4   11 d           3.861   3.130  -1.310  0.00  0.00     0.112 A 
ATOM     10  N1   11 d           4.092   2.007  -2.017  0.00  0.00    -0.289 N 
ATOM     11  N2   11 d           4.669   2.295  -3.146  0.00  0.00    -0.170 NA
ATOM     12  H3   11 d           3.841   1.033  -1.712  0.00  0.00     0.188 HD
ENDBRANCH   4   7
ENDBRANCH   1   3
BRANCH   2  13
ATOM     13  C6   11 d           6.033   7.365  -7.578  0.00  0.00     0.017 A 
ATOM     14  C7   11 d           5.069   7.760  -8.535  0.00  0.00     0.082 A 
ATOM     15  C9   11 d           5.457   8.512  -9.655  0.00  0.00     0.074 A 
ATOM     16  C10  11 d           6.791   8.911  -9.818  0.00  0.00     0.070 A 
ATOM     17  C12  11 d           7.741   8.571  -8.843  0.00  0.00     0.038 A 
ATOM     18  C13  11 d           7.370   7.788  -7.738  0.00  0.00     0.018 A 
BRANCH  14  19
ATOM     19  O2   11 d           3.720   7.313  -8.438  0.00  0.00    -0.355 OA
ATOM     20  C8   11 d           2.929   8.295  -7.723  0.00  0.00     0.210 C 
ENDBRANCH  14  19
BRANCH  16  21
ATOM     21  O3   11 d           7.143   9.790 -10.877  0.00  0.00    -0.356 OA
ATOM     22  C11  11 d           7.550   9.024 -12.037  0.00  0.00     0.210 C 
ENDBRANCH  16  21
ENDBRANCH   2  13
TORSDOF 5
