REMARK  4 active torsions:
REMARK  status: ('A' for Active; 'I' for Inactive)
REMARK    1  A    between atoms: C1_1  and  O1_2 
REMARK    2  A    between atoms: C5_6  and  C6_7 
REMARK    3  A    between atoms: C6_7  and  C7_8 
REMARK    4  A    between atoms: C6_7  and  N2_14 
ROOT
ATOM      1  C6   11 d          -2.616 -11.240  -5.319  0.00  0.00     0.249 C 
ENDROOT
BRANCH   1   2
ATOM      2  C5   11 d          -1.134 -10.908  -5.105  0.00  0.00    -0.023 A 
ATOM      3  C4   11 d          -0.579 -10.524  -3.858  0.00  0.00     0.012 A 
ATOM      4  C3   11 d           0.793 -10.253  -3.737  0.00  0.00     0.037 A 
ATOM      5  C1   11 d           1.635 -10.343  -4.853  0.00  0.00     0.068 A 
ATOM      6  C13  11 d           1.111 -10.761  -6.083  0.00  0.00     0.037 A 
ATOM      7  C12  11 d          -0.259 -11.029  -6.212  0.00  0.00     0.012 A 
BRANCH   5   8
ATOM      8  O1   11 d           3.033 -10.170  -4.695  0.00  0.00    -0.356 OA
ATOM      9  C2   11 d           3.401  -8.802  -5.004  0.00  0.00     0.210 C 
ENDBRANCH   5   8
ENDBRANCH   1   2
BRANCH   1  10
ATOM     10  C7   11 d          -3.327 -10.343  -6.342  0.00  0.00    -0.021 A 
ATOM     11  C8   11 d          -4.646 -10.672  -6.736  0.00  0.00     0.029 A 
ATOM     12  C9   11 d          -5.326  -9.871  -7.663  0.00  0.00     0.116 A 
ATOM     13  N1   11 d          -4.719  -8.773  -8.186  0.00  0.00    -0.273 NA
ATOM     14  C10  11 d          -3.451  -8.419  -7.843  0.00  0.00     0.116 A 
ATOM     15  C11  11 d          -2.734  -9.193  -6.920  0.00  0.00     0.029 A 
ENDBRANCH   1  10
BRANCH   1  16
ATOM     16  N2   11 d          -3.399 -11.230  -4.040  0.00  0.00    -0.067 N 
ATOM     17  H11  11 d          -2.948 -11.876  -3.315  0.00  0.00     0.275 HD
ATOM     18  H12  11 d          -3.462 -10.239  -3.638  0.00  0.00     0.275 HD
ATOM     19  H13  11 d          -4.396 -11.590  -4.183  0.00  0.00     0.275 HD
ENDBRANCH   1  16
TORSDOF 4
