REMARK  3 active torsions:
REMARK  status: ('A' for Active; 'I' for Inactive)
REMARK    1  A    between atoms: C1_1  and  O1_2 
REMARK    2  A    between atoms: C7_8  and  C8_9 
REMARK    3  A    between atoms: C8_9  and  N1_10 
ROOT
ATOM      1  C1   11 d          -2.898   1.530  -1.629  0.00  0.00     0.069 A 
ATOM      2  C3   11 d          -3.856   0.974  -2.491  0.00  0.00     0.049 A 
ATOM      3  C4   11 d          -3.496  -0.048  -3.390  0.00  0.00    -0.023 A 
ATOM      4  C5   11 d          -2.150  -0.497  -3.442  0.00  0.00    -0.025 A 
ATOM      5  C6   11 d          -1.788  -1.512  -4.348  0.00  0.00     0.021 A 
ATOM      6  C7   11 d          -2.749  -2.094  -5.203  0.00  0.00    -0.028 A 
ATOM      7  C10  11 d          -4.083  -1.635  -5.142  0.00  0.00     0.010 A 
ATOM      8  C11  11 d          -4.453  -0.625  -4.243  0.00  0.00     0.013 A 
ATOM      9  C12  11 d          -1.190   0.088  -2.593  0.00  0.00     0.015 A 
ATOM     10  C13  11 d          -1.562   1.106  -1.703  0.00  0.00     0.037 A 
ENDROOT
BRANCH   6  11
ATOM     11  C8   11 d          -2.331  -3.155  -6.208  0.00  0.00     0.212 C 
ATOM     12  C9   11 d          -2.917  -4.523  -5.830  0.00  0.00     0.045 C 
BRANCH  11  13
ATOM     13  N1   11 d          -2.683  -2.767  -7.607  0.00  0.00    -0.071 N 
ATOM     14  H7   11 d          -2.239  -3.448  -8.305  0.00  0.00     0.275 HD
ATOM     15  H8   11 d          -3.742  -2.777  -7.763  0.00  0.00     0.275 HD
ATOM     16  H9   11 d          -2.318  -1.785  -7.827  0.00  0.00     0.275 HD
ENDBRANCH  11  13
ENDBRANCH   6  11
BRANCH   1  17
ATOM     17  O1   11 d          -3.249   2.622  -0.794  0.00  0.00    -0.356 OA
ATOM     18  C2   11 d          -3.656   2.130   0.507  0.00  0.00     0.210 C 
ENDBRANCH   1  17
TORSDOF 3
