REMARK  9 active torsions:
REMARK  status: ('A' for Active; 'I' for Inactive)
REMARK    1  A    between atoms: C1_1  and  O2_3 
REMARK    2  A    between atoms: C1_1  and  C14_21 
REMARK    3  A    between atoms: O2_3  and  C2_4 
REMARK    4  A    between atoms: C2_4  and  C3_5 
REMARK    5  A    between atoms: C3_5  and  C4_6 
REMARK    6  A    between atoms: N1_8  and  C7_11 
REMARK    7  A    between atoms: C7_11  and  C8_12 
REMARK    8  A    between atoms: C9_13  and  N4_19 
REMARK    9  A    between atoms: C14_21  and  C15_22 
ROOT
ATOM      1  C4   11 d          -0.953   2.228  -5.215  0.00  0.00     0.008 A 
ATOM      2  C5   11 d          -2.086   3.047  -5.377  0.00  0.00     0.021 A 
ATOM      3  N1   11 d          -3.129   2.312  -5.890  0.00  0.00    -0.349 N 
ATOM      4  C6   11 d          -2.763   1.018  -6.074  0.00  0.00     0.141 A 
ATOM      5  S1   11 d          -1.345   0.846  -5.645  0.00  0.00    -0.087 SA
ATOM      6  C13  11 d          -2.205   4.473  -4.900  0.00  0.00     0.069 C 
ENDROOT
BRANCH   1   7
ATOM      7  C3   11 d           0.392   2.595  -4.617  0.00  0.00     0.075 C 
BRANCH   7   8
ATOM      8  C2   11 d           1.071   1.499  -3.788  0.00  0.00     0.183 C 
BRANCH   8   9
ATOM      9  O2   11 d           1.666   0.505  -4.661  0.00  0.00    -0.321 OA
BRANCH   9  10
ATOM     10  C1   11 d           2.084  -0.616  -3.895  0.00  0.00     0.259 C 
ATOM     11  O1   11 d           3.119  -0.517  -3.190  0.00  0.00    -0.265 OA
BRANCH  10  12
ATOM     12  C14  11 d           1.416  -1.950  -4.131  0.00  0.00     0.120 C 
BRANCH  12  13
ATOM     13  C15  11 d           2.255  -3.254  -3.992  0.00  0.00    -0.031 C 
ATOM     14  C16  11 d           1.384  -4.461  -4.469  0.00  0.00     0.014 C 
ATOM     15  C17  11 d           2.167  -5.791  -4.353  0.00  0.00    -0.013 C 
ATOM     16  C18  11 d           2.570  -6.023  -2.879  0.00  0.00     0.009 C 
ATOM     17  C24  11 d           3.439  -5.715  -5.229  0.00  0.00     0.009 C 
ATOM     18  C19  11 d           3.455  -4.851  -2.397  0.00  0.00    -0.013 C 
ATOM     19  C20  11 d           2.663  -3.527  -2.510  0.00  0.00     0.014 C 
ATOM     20  C21  11 d           4.726  -4.767  -3.274  0.00  0.00     0.009 C 
ATOM     21  C22  11 d           4.326  -4.543  -4.752  0.00  0.00    -0.013 C 
ATOM     22  C23  11 d           3.538  -3.216  -4.878  0.00  0.00     0.014 C 
ENDBRANCH  12  13
ENDBRANCH  10  12
ENDBRANCH   9  10
ENDBRANCH   8   9
ENDBRANCH   7   8
ENDBRANCH   1   7
BRANCH   3  23
ATOM     23  C7   11 d          -4.467   2.813  -6.269  0.00  0.00     0.172 C 
BRANCH  23  24
ATOM     24  C8   11 d          -5.655   2.207  -5.539  0.00  0.00     0.023 A 
ATOM     25  C9   11 d          -6.981   2.573  -5.888  0.00  0.00     0.132 A 
ATOM     26  N2   11 d          -8.036   1.966  -5.274  0.00  0.00    -0.216 NA
ATOM     27  C10  11 d          -7.862   0.999  -4.334  0.00  0.00     0.124 A 
ATOM     28  N3   11 d          -6.603   0.698  -3.917  0.00  0.00    -0.245 NA
ATOM     29  C12  11 d          -9.046   0.423  -3.627  0.00  0.00     0.093 C 
ATOM     30  C11  11 d          -5.511   1.268  -4.497  0.00  0.00     0.131 A 
BRANCH  25  31
ATOM     31  N4   11 d          -7.284   3.519  -6.848  0.00  0.00    -0.383 N 
ATOM     32  H12  11 d          -6.578   4.015  -7.338  0.00  0.00     0.157 HD
ATOM     33  H13  11 d          -8.235   3.717  -7.061  0.00  0.00     0.157 HD
ENDBRANCH  25  31
ENDBRANCH  23  24
ENDBRANCH   3  23
TORSDOF 9
