REMARK  3 active torsions:
REMARK  status: ('A' for Active; 'I' for Inactive)
REMARK    1  A    between atoms: C19_24  and  O3_25 
REMARK    2  A    between atoms: O3_25  and  C20_26 
REMARK    3  A    between atoms: C20_26  and  C21_27 
ROOT
ATOM      1  C1   11 d           3.066  -3.039  -3.503  0.00  0.00     0.157 A 
ATOM      2  C2   11 d           1.747  -2.474  -3.703  0.00  0.00     0.285 A 
ATOM      3  N1   11 d           1.660  -1.262  -2.992  0.00  0.00    -0.277 N 
ATOM      4  C3   11 d           0.452  -0.432  -2.905  0.00  0.00     0.177 A 
ATOM      5  N2   11 d          -0.732  -0.701  -3.501  0.00  0.00    -0.228 NA
ATOM      6  C4   11 d          -1.640   0.278  -3.236  0.00  0.00     0.046 A 
ATOM      7  C5   11 d          -1.086   1.255  -2.404  0.00  0.00     0.006 A 
ATOM      8  S1   11 d           0.322   0.839  -2.119  0.00  0.00    -0.055 SA
ATOM      9  C6   11 d          -1.761   2.438  -1.775  0.00  0.00     0.058 C 
ATOM     10  C7   11 d          -3.076   0.173  -3.647  0.00  0.00     0.071 C 
ATOM     11  C8   11 d           2.981  -0.949  -2.334  0.00  0.00     0.168 A 
ATOM     12  C9   11 d           3.791  -2.197  -2.669  0.00  0.00     0.060 A 
ATOM     13  C10  11 d           5.082  -2.608  -2.284  0.00  0.00     0.196 A 
ATOM     14  C11  11 d           5.581  -3.845  -2.762  0.00  0.00     0.049 A 
ATOM     15  C12  11 d           4.747  -4.621  -3.617  0.00  0.00     0.090 A 
ATOM     16  O1   11 d           3.540  -4.191  -3.945  0.00  0.00    -0.303 OA
ATOM     17  C13  11 d           5.194  -5.859  -4.101  0.00  0.00     0.038 A 
ATOM     18  C14  11 d           6.464  -6.338  -3.746  0.00  0.00     0.003 A 
ATOM     19  C15  11 d           7.293  -5.580  -2.906  0.00  0.00     0.001 A 
ATOM     20  C16  11 d           6.858  -4.338  -2.415  0.00  0.00     0.018 A 
ATOM     21  O2   11 d           5.763  -1.912  -1.491  0.00  0.00    -0.287 OA
ATOM     22  C17  11 d           3.630   0.345  -2.834  0.00  0.00    -0.028 A 
ATOM     23  C18  11 d           4.766   0.869  -2.176  0.00  0.00     0.046 A 
ATOM     24  C19  11 d           5.327   2.099  -2.559  0.00  0.00     0.069 A 
ATOM     25  C23  11 d           4.751   2.833  -3.604  0.00  0.00     0.037 A 
ATOM     26  C24  11 d           3.649   2.319  -4.296  0.00  0.00     0.003 A 
ATOM     27  C25  11 d           3.093   1.090  -3.914  0.00  0.00     0.010 A 
ATOM     28  O4   11 d           0.799  -3.012  -4.377  0.00  0.00    -0.265 OA
ENDROOT
BRANCH  24  29
ATOM     29  O3   11 d           6.344   2.686  -1.762  0.00  0.00    -0.348 OA
BRANCH  29  30
ATOM     30  C20  11 d           7.645   2.424  -2.340  0.00  0.00     0.202 C 
BRANCH  30  31
ATOM     31  C21  11 d           8.675   2.941  -1.379  0.00  0.00    -0.011 C 
ATOM     32  C22  11 d           9.283   2.153  -0.484  0.00  0.00     0.009 C 
ENDBRANCH  30  31
ENDBRANCH  29  30
ENDBRANCH  24  29
TORSDOF 3
