REMARK  2 active torsions:
REMARK  status: ('A' for Active; 'I' for Inactive)
REMARK       I    between atoms: C1_1  and  N3_6 
REMARK    1  A    between atoms: N3_6  and  C4_7 
REMARK    2  A    between atoms: C4_7  and  C5_8 
ROOT
ATOM      1  C5   11 d          -0.780  -2.152  -4.887  0.00  0.00    -0.023 C 
ATOM      2  C6   11 d          -1.273  -3.599  -5.207  0.00  0.00     0.015 C 
ATOM      3  C7   11 d          -2.739  -3.585  -5.702  0.00  0.00    -0.013 C 
ATOM      4  C8   11 d          -2.839  -2.728  -6.985  0.00  0.00     0.009 C 
ATOM      5  C9   11 d          -2.379  -1.284  -6.679  0.00  0.00    -0.013 C 
ATOM      6  C10  11 d          -0.911  -1.304  -6.190  0.00  0.00     0.015 C 
ATOM      7  C11  11 d          -3.281  -0.678  -5.578  0.00  0.00     0.009 C 
ATOM      8  C12  11 d          -3.187  -1.536  -4.295  0.00  0.00    -0.013 C 
ATOM      9  C13  11 d          -1.722  -1.557  -3.795  0.00  0.00     0.015 C 
ATOM     10  C14  11 d          -3.645  -2.980  -4.605  0.00  0.00     0.009 C 
ENDROOT
BRANCH   1  11
ATOM     11  C4   11 d           0.693  -2.221  -4.396  0.00  0.00     0.147 C 
BRANCH  11  12
ATOM     12  N3   11 d           1.293  -0.975  -4.067  0.00  0.00    -0.224 N 
ATOM     13  C1   11 d           2.604  -0.867  -3.635  0.00  0.00     0.691 A 
ATOM     14  N1   11 d           3.399  -1.886  -3.479  0.00  0.00    -0.106 NA
ATOM     15  N2   11 d           3.192   0.323  -3.329  0.00  0.00    -0.223 N 
ATOM     16  C2   11 d           4.687  -1.363  -3.014  0.00  0.00     0.189 A 
ATOM     17  C3   11 d           4.514   0.154  -2.923  0.00  0.00     0.160 A 
ATOM     18  H5   11 d           2.739   1.209  -3.386  0.00  0.00     0.177 HD
ATOM     19  H6   11 d           0.764  -0.137  -4.147  0.00  0.00     0.177 HD
ENDBRANCH  11  12
ENDBRANCH   1  11
TORSDOF 2
