REMARK  5 active torsions:
REMARK  status: ('A' for Active; 'I' for Inactive)
REMARK    1  A    between atoms: C1_1  and  C2_2 
REMARK    2  A    between atoms: C1_1  and  C9_10 
REMARK    3  A    between atoms: C2_2  and  C3_3 
REMARK    4  A    between atoms: N1_13  and  N2_14 
REMARK    5  A    between atoms: N2_14  and  C11_15 
ROOT
ATOM      1  C1   11 d           3.805  -8.874  -5.736  0.00  0.00     0.172 C 
ATOM      2  N1   11 d           4.959  -8.292  -6.021  0.00  0.00    -0.167 NA
ENDROOT
BRANCH   1   3
ATOM      3  C2   11 d           3.298  -9.677  -4.504  0.00  0.00     0.216 C 
ATOM      4  O1   11 d           2.103 -10.050  -4.634  0.00  0.00    -0.285 OA
BRANCH   3   5
ATOM      5  C3   11 d           3.919 -10.111  -3.169  0.00  0.00     0.017 A 
ATOM      6  C4   11 d           3.072 -10.831  -2.270  0.00  0.00     0.015 A 
ATOM      7  C5   11 d           3.519 -11.301  -1.028  0.00  0.00     0.001 A 
ATOM      8  C6   11 d           4.834 -11.071  -0.627  0.00  0.00     0.000 A 
ATOM      9  C7   11 d           5.694 -10.364  -1.469  0.00  0.00     0.001 A 
ATOM     10  C8   11 d           5.242  -9.892  -2.712  0.00  0.00     0.015 A 
ENDBRANCH   3   5
ENDBRANCH   1   3
BRANCH   1  11
ATOM     11  C9   11 d           2.856  -8.647  -6.913  0.00  0.00     0.179 C 
ATOM     12  O2   11 d           1.683  -9.103  -6.914  0.00  0.00    -0.291 OA
ATOM     13  C10  11 d           3.238  -7.793  -8.101  0.00  0.00     0.099 C 
ENDBRANCH   1  11
BRANCH   2  14
ATOM     14  N2   11 d           6.056  -8.277  -5.305  0.00  0.00    -0.278 N 
ATOM     15  H9   11 d           6.634  -9.089  -5.306  0.00  0.00     0.189 HD
BRANCH  14  16
ATOM     16  C11  11 d           6.428  -7.146  -4.594  0.00  0.00     0.050 A 
ATOM     17  C12  11 d           7.793  -6.913  -4.332  0.00  0.00     0.032 A 
ATOM     18  C13  11 d           8.200  -5.753  -3.654  0.00  0.00     0.021 A 
ATOM     19  C14  11 d           7.247  -4.821  -3.218  0.00  0.00     0.011 A 
ATOM     20 Br1   11 d           7.807  -3.221  -2.299  0.00  0.00    -0.051 Br
ATOM     21  C15  11 d           5.884  -5.053  -3.454  0.00  0.00     0.021 A 
ATOM     22  C16  11 d           5.476  -6.207  -4.141  0.00  0.00     0.032 A 
ENDBRANCH  14  16
ENDBRANCH   2  14
TORSDOF 5
