REMARK  6 active torsions:
REMARK  status: ('A' for Active; 'I' for Inactive)
REMARK       I    between atoms: C1_1  and  N1_3 
REMARK    1  A    between atoms: C1_1  and  C9_12 
REMARK    2  A    between atoms: N1_3  and  C2_4 
REMARK    3  A    between atoms: C3_5  and  O2_6 
REMARK    4  A    between atoms: C9_12  and  C10_13 
REMARK    5  A    between atoms: C10_13  and  C11_14 
REMARK    6  A    between atoms: C11_14  and  C12_15 
ROOT
ATOM      1  C1   11 d           3.753  -8.916  -5.092  0.00  0.00     0.222 C 
ATOM      2  O1   11 d           4.827  -8.282  -4.805  0.00  0.00    -0.273 OA
ATOM      3  N1   11 d           3.226  -9.926  -4.224  0.00  0.00    -0.325 N 
ATOM      4  H1   11 d           2.320 -10.400  -4.551  0.00  0.00     0.169 HD
ENDROOT
BRANCH   1   5
ATOM      5  C9   11 d           3.030  -8.601  -6.383  0.00  0.00     0.103 C 
BRANCH   5   6
ATOM      6  C10  11 d           3.893  -7.875  -7.426  0.00  0.00     0.014 C 
BRANCH   6   7
ATOM      7  C11  11 d           3.153  -7.647  -8.754  0.00  0.00     0.039 C 
BRANCH   7   8
ATOM      8  C12  11 d           3.897  -6.864  -9.821  0.00  0.00    -0.058 A 
ATOM      9  C13  11 d           3.164  -6.411 -10.938  0.00  0.00     0.007 A 
ATOM     10  C14  11 d           3.783  -5.652 -11.944  0.00  0.00     0.001 A 
ATOM     11  C15  11 d           5.140  -5.321 -11.839  0.00  0.00     0.000 A 
ATOM     12  C16  11 d           5.878  -5.745 -10.726  0.00  0.00     0.001 A 
ATOM     13  C17  11 d           5.263  -6.507  -9.720  0.00  0.00     0.007 A 
ENDBRANCH   7   8
ENDBRANCH   6   7
ENDBRANCH   5   6
ENDBRANCH   1   5
BRANCH   3  14
ATOM     14  C2   11 d           3.783 -10.397  -2.930  0.00  0.00     0.068 A 
ATOM     15  C3   11 d           3.080 -11.416  -2.229  0.00  0.00     0.095 A 
ATOM     16  C5   11 d           3.611 -11.967  -1.050  0.00  0.00     0.039 A 
ATOM     17  C6   11 d           4.801 -11.472  -0.507  0.00  0.00     0.003 A 
ATOM     18  C7   11 d           5.478 -10.434  -1.154  0.00  0.00     0.002 A 
ATOM     19  C8   11 d           4.980  -9.903  -2.353  0.00  0.00     0.032 A 
BRANCH  15  20
ATOM     20  O2   11 d           1.887 -11.988  -2.759  0.00  0.00    -0.354 OA
ATOM     21  C4   11 d           0.735 -11.360  -2.141  0.00  0.00     0.210 C 
ENDBRANCH  15  20
ENDBRANCH   3  14
TORSDOF 6
