REMARK  5 active torsions:
REMARK  status: ('A' for Active; 'I' for Inactive)
REMARK    1  A    between atoms: C2_2  and  C3_3 
REMARK    2  A    between atoms: C10_12  and  C11_13 
REMARK    3  A    between atoms: C12_14  and  O1_15 
REMARK    4  A    between atoms: O1_15  and  C13_16 
REMARK    5  A    between atoms: C13_16  and  C14_17 
ROOT
ATOM      1  C1   11 d          -5.811  -0.117  -4.470  0.00  0.00     0.103 C 
ATOM      2  C2   11 d          -5.947   1.234  -3.975  0.00  0.00     0.091 C 
ATOM      3  C10  11 d          -5.037   1.786  -3.137  0.00  0.00     0.041 C 
ATOM      4  N3   11 d          -5.748  -1.214  -4.881  0.00  0.00    -0.191 NA
ENDROOT
BRANCH   2   5
ATOM      5  C3   11 d          -7.157   1.990  -4.395  0.00  0.00     0.149 A 
ATOM      6  N1   11 d          -8.118   1.554  -5.256  0.00  0.00    -0.338 N 
ATOM      7  C4   11 d          -9.049   2.518  -5.347  0.00  0.00     0.062 A 
ATOM      8  H1   11 d          -8.130   0.631  -5.761  0.00  0.00     0.167 HD
ATOM      9  C5   11 d          -8.651   3.562  -4.538  0.00  0.00     0.086 A 
ATOM     10  C9   11 d         -10.242   2.573  -6.082  0.00  0.00     0.032 A 
ATOM     11  C6   11 d          -9.416   4.727  -4.413  0.00  0.00     0.034 A 
ATOM     12  N2   11 d          -7.485   3.235  -3.953  0.00  0.00    -0.228 NA
ATOM     13  C7   11 d         -10.621   4.807  -5.141  0.00  0.00     0.002 A 
ATOM     14  C8   11 d         -11.032   3.737  -5.970  0.00  0.00     0.002 A 
ENDBRANCH   2   5
BRANCH   3  15
ATOM     15  C11  11 d          -3.768   1.138  -2.703  0.00  0.00     0.010 A 
ATOM     16  C12  11 d          -2.781   0.855  -3.677  0.00  0.00     0.080 A 
ATOM     17  C20  11 d          -1.534   0.340  -3.275  0.00  0.00     0.038 A 
ATOM     18  C21  11 d          -1.267   0.082  -1.928  0.00  0.00     0.015 A 
ATOM     19  C22  11 d          -2.236   0.356  -0.948  0.00  0.00    -0.025 A 
ATOM     20  C23  11 d          -3.498   0.897  -1.327  0.00  0.00    -0.013 A 
ATOM     21  C27  11 d          -1.952   0.106   0.409  0.00  0.00     0.012 A 
ATOM     22  C24  11 d          -4.447   1.175  -0.313  0.00  0.00     0.013 A 
ATOM     23  C25  11 d          -4.149   0.924   1.034  0.00  0.00     0.001 A 
ATOM     24  C26  11 d          -2.906   0.391   1.394  0.00  0.00     0.001 A 
BRANCH  16  25
ATOM     25  O1   11 d          -3.049   1.156  -5.048  0.00  0.00    -0.346 OA
BRANCH  25  26
ATOM     26  C13  11 d          -2.781   0.034  -5.941  0.00  0.00     0.214 C 
BRANCH  26  27
ATOM     27  C14  11 d          -3.550   0.159  -7.235  0.00  0.00    -0.034 A 
ATOM     28  C15  11 d          -3.921  -1.006  -7.939  0.00  0.00     0.009 A 
ATOM     29  C16  11 d          -4.686  -0.919  -9.112  0.00  0.00     0.001 A 
ATOM     30  C17  11 d          -5.116   0.331  -9.579  0.00  0.00     0.000 A 
ATOM     31  C18  11 d          -4.790   1.493  -8.867  0.00  0.00     0.001 A 
ATOM     32  C19  11 d          -4.022   1.408  -7.696  0.00  0.00     0.009 A 
ENDBRANCH  26  27
ENDBRANCH  25  26
ENDBRANCH  16  25
ENDBRANCH   3  15
TORSDOF 5
