MODEL 1
REMARK VINA RESULT:      -7.1      0.000      0.000
REMARK  2 active torsions:
REMARK  status: ('A' for Active; 'I' for Inactive)
REMARK    1  A    between atoms: C4_5  and  C7_8 
REMARK    2  A    between atoms: C7_8  and  N1_9 
ROOT
ATOM      1  N1   11 d         -11.678 207.299 112.755  0.00  0.00    -0.066 N 
ATOM      2  C8   11 d         -10.448 208.069 112.290  0.00  0.00     0.262 C 
ATOM      3  C9   11 d          -9.302 208.358 113.304  0.00  0.00     0.260 C 
ATOM      4  N2   11 d          -9.644 209.147 114.535  0.00  0.00    -0.073 N 
ATOM      5  C10  11 d         -10.906 208.741 115.238  0.00  0.00     0.234 C 
ATOM      6  C11  11 d         -11.192 207.225 115.314  0.00  0.00     0.055 C 
ATOM      7  C12  11 d         -11.426 206.455 113.983  0.00  0.00     0.237 C 
ATOM      8  H7   11 d         -12.446 208.010 113.001  0.00  0.00     0.280 HD
ATOM      9  H12  11 d          -8.824 209.067 115.228  0.00  0.00     0.277 HD
ATOM     10  H13  11 d          -9.708 210.191 114.285  0.00  0.00     0.277 HD
ENDROOT
BRANCH   1  11
ATOM     11  C7   11 d         -12.249 206.479 111.618  0.00  0.00     0.273 C 
BRANCH  11  12
ATOM     12  C4   11 d         -13.762 206.508 111.565  0.00  0.00    -0.032 A 
ATOM     13  C3   11 d         -14.532 205.883 112.571  0.00  0.00     0.012 A 
ATOM     14  C2   11 d         -15.933 205.858 112.481  0.00  0.00     0.043 A 
ATOM     15  C1   11 d         -16.576 206.429 111.375  0.00  0.00     0.116 A 
ATOM     16  F1   11 d         -17.935 206.414 111.293  0.00  0.00    -0.206 F 
ATOM     17  C6   11 d         -15.820 207.010 110.348  0.00  0.00     0.043 A 
ATOM     18  C5   11 d         -14.418 207.037 110.433  0.00  0.00     0.012 A 
ENDBRANCH  11  12
ENDBRANCH   1  11
TORSDOF 2
ENDMDL
MODEL 2
REMARK VINA RESULT:      -7.0      1.246      1.859
REMARK  2 active torsions:
REMARK  status: ('A' for Active; 'I' for Inactive)
REMARK    1  A    between atoms: C4_5  and  C7_8 
REMARK    2  A    between atoms: C7_8  and  N1_9 
ROOT
ATOM      1  N1   11 d         -12.336 206.843 113.994  0.00  0.00    -0.066 N 
ATOM      2  C8   11 d         -11.515 208.123 113.886  0.00  0.00     0.262 C 
ATOM      3  C9   11 d         -10.530 208.495 115.033  0.00  0.00     0.260 C 
ATOM      4  N2   11 d         -11.100 208.675 116.410  0.00  0.00    -0.073 N 
ATOM      5  C10  11 d         -12.080 207.629 116.851  0.00  0.00     0.234 C 
ATOM      6  C11  11 d         -11.758 206.173 116.446  0.00  0.00     0.055 C 
ATOM      7  C12  11 d         -11.730 205.823 114.931  0.00  0.00     0.237 C 
ATOM      8  H7   11 d         -13.308 207.098 114.376  0.00  0.00     0.280 HD
ATOM      9  H12  11 d         -10.286 208.701 117.113  0.00  0.00     0.277 HD
ATOM     10  H13  11 d         -11.570 209.640 116.479  0.00  0.00     0.277 HD
ENDROOT
BRANCH   1  11
ATOM     11  C7   11 d         -12.591 206.262 112.621  0.00  0.00     0.273 C 
BRANCH  11  12
ATOM     12  C4   11 d         -14.056 206.276 112.232  0.00  0.00    -0.032 A 
ATOM     13  C3   11 d         -14.461 206.743 110.963  0.00  0.00     0.012 A 
ATOM     14  C2   11 d         -15.824 206.814 110.634  0.00  0.00     0.043 A 
ATOM     15  C1   11 d         -16.794 206.448 111.576  0.00  0.00     0.116 A 
ATOM     16  F1   11 d         -18.115 206.506 111.253  0.00  0.00    -0.206 F 
ATOM     17  C6   11 d         -16.405 206.028 112.856  0.00  0.00     0.043 A 
ATOM     18  C5   11 d         -15.042 205.957 113.189  0.00  0.00     0.012 A 
ENDBRANCH  11  12
ENDBRANCH   1  11
TORSDOF 2
ENDMDL
MODEL 3
REMARK VINA RESULT:      -6.8      3.198      6.266
REMARK  2 active torsions:
REMARK  status: ('A' for Active; 'I' for Inactive)
REMARK    1  A    between atoms: C4_5  and  C7_8 
REMARK    2  A    between atoms: C7_8  and  N1_9 
ROOT
ATOM      1  N1   11 d         -13.866 206.478 112.884  0.00  0.00    -0.066 N 
ATOM      2  C8   11 d         -15.265 206.370 113.478  0.00  0.00     0.262 C 
ATOM      3  C9   11 d         -16.447 205.925 112.567  0.00  0.00     0.260 C 
ATOM      4  N2   11 d         -16.749 206.766 111.360  0.00  0.00    -0.073 N 
ATOM      5  C10  11 d         -15.561 207.187 110.547  0.00  0.00     0.234 C 
ATOM      6  C11  11 d         -14.445 206.135 110.366  0.00  0.00     0.055 C 
ATOM      7  C12  11 d         -13.682 205.651 111.632  0.00  0.00     0.237 C 
ATOM      8  H7   11 d         -13.691 207.507 112.623  0.00  0.00     0.280 HD
ATOM      9  H12  11 d         -17.423 206.217 110.725  0.00  0.00     0.277 HD
ATOM     10  H13  11 d         -17.291 207.644 111.663  0.00  0.00     0.277 HD
ENDROOT
BRANCH   1  11
ATOM     11  C7   11 d         -12.821 206.154 113.929  0.00  0.00     0.273 C 
BRANCH  11  12
ATOM     12  C4   11 d         -11.732 207.202 114.028  0.00  0.00    -0.032 A 
ATOM     13  C3   11 d         -10.742 207.311 113.027  0.00  0.00     0.012 A 
ATOM     14  C2   11 d          -9.699 208.241 113.158  0.00  0.00     0.043 A 
ATOM     15  C1   11 d          -9.618 209.050 114.299  0.00  0.00     0.116 A 
ATOM     16  F1   11 d          -8.612 209.960 114.421  0.00  0.00    -0.206 F 
ATOM     17  C6   11 d         -10.568 208.917 115.321  0.00  0.00     0.043 A 
ATOM     18  C5   11 d         -11.613 207.987 115.195  0.00  0.00     0.012 A 
ENDBRANCH  11  12
ENDBRANCH   1  11
TORSDOF 2
ENDMDL
MODEL 4
REMARK VINA RESULT:      -6.7      3.047      4.078
REMARK  2 active torsions:
REMARK  status: ('A' for Active; 'I' for Inactive)
REMARK    1  A    between atoms: C4_5  and  C7_8 
REMARK    2  A    between atoms: C7_8  and  N1_9 
ROOT
ATOM      1  N1   11 d         -14.495 205.782 115.509  0.00  0.00    -0.066 N 
ATOM      2  C8   11 d         -14.595 204.660 116.536  0.00  0.00     0.262 C 
ATOM      3  C9   11 d         -13.980 204.866 117.951  0.00  0.00     0.260 C 
ATOM      4  N2   11 d         -12.509 205.155 118.035  0.00  0.00    -0.073 N 
ATOM      5  C10  11 d         -11.989 206.170 117.061  0.00  0.00     0.234 C 
ATOM      6  C11  11 d         -12.896 207.391 116.791  0.00  0.00     0.055 C 
ATOM      7  C12  11 d         -14.281 207.143 116.130  0.00  0.00     0.237 C 
ATOM      8  H7   11 d         -13.653 205.580 114.871  0.00  0.00     0.280 HD
ATOM      9  H12  11 d         -12.286 205.492 119.033  0.00  0.00     0.277 HD
ATOM     10  H13  11 d         -11.957 204.241 117.910  0.00  0.00     0.277 HD
ENDROOT
BRANCH   1  11
ATOM     11  C7   11 d         -15.697 205.766 114.590  0.00  0.00     0.273 C 
BRANCH  11  12
ATOM     12  C4   11 d         -15.334 205.952 113.131  0.00  0.00    -0.032 A 
ATOM     13  C3   11 d         -13.999 205.809 112.696  0.00  0.00     0.012 A 
ATOM     14  C2   11 d         -13.659 206.047 111.355  0.00  0.00     0.043 A 
ATOM     15  C1   11 d         -14.641 206.456 110.444  0.00  0.00     0.116 A 
ATOM     16  F1   11 d         -14.313 206.676 109.141  0.00  0.00    -0.206 F 
ATOM     17  C6   11 d         -15.961 206.647 110.875  0.00  0.00     0.043 A 
ATOM     18  C5   11 d         -16.305 206.412 112.216  0.00  0.00     0.012 A 
ENDBRANCH  11  12
ENDBRANCH   1  11
TORSDOF 2
ENDMDL
MODEL 5
REMARK VINA RESULT:      -6.7      1.866      2.795
REMARK  2 active torsions:
REMARK  status: ('A' for Active; 'I' for Inactive)
REMARK    1  A    between atoms: C4_5  and  C7_8 
REMARK    2  A    between atoms: C7_8  and  N1_9 
ROOT
ATOM      1  N1   11 d         -13.019 206.343 114.657  0.00  0.00    -0.066 N 
ATOM      2  C8   11 d         -12.391 205.550 115.798  0.00  0.00     0.262 C 
ATOM      3  C9   11 d         -11.647 206.311 116.934  0.00  0.00     0.260 C 
ATOM      4  N2   11 d         -10.477 207.169 116.547  0.00  0.00    -0.073 N 
ATOM      5  C10  11 d         -10.681 208.045 115.346  0.00  0.00     0.234 C 
ATOM      6  C11  11 d         -12.070 208.706 115.208  0.00  0.00     0.055 C 
ATOM      7  C12  11 d         -13.306 207.782 115.017  0.00  0.00     0.237 C 
ATOM      8  H7   11 d         -12.331 206.345 113.831  0.00  0.00     0.280 HD
ATOM      9  H12  11 d         -10.220 207.792 117.387  0.00  0.00     0.277 HD
ATOM     10  H13  11 d          -9.617 206.546 116.378  0.00  0.00     0.277 HD
ENDROOT
BRANCH   1  11
ATOM     11  C7   11 d         -14.254 205.637 114.141  0.00  0.00     0.273 C 
BRANCH  11  12
ATOM     12  C4   11 d         -14.607 206.019 112.718  0.00  0.00    -0.032 A 
ATOM     13  C3   11 d         -13.595 206.308 111.776  0.00  0.00     0.012 A 
ATOM     14  C2   11 d         -13.930 206.725 110.478  0.00  0.00     0.043 A 
ATOM     15  C1   11 d         -15.274 206.885 110.118  0.00  0.00     0.116 A 
ATOM     16  F1   11 d         -15.600 207.279 108.856  0.00  0.00    -0.206 F 
ATOM     17  C6   11 d         -16.286 206.647 111.059  0.00  0.00     0.043 A 
ATOM     18  C5   11 d         -15.955 206.231 112.358  0.00  0.00     0.012 A 
ENDBRANCH  11  12
ENDBRANCH   1  11
TORSDOF 2
ENDMDL
MODEL 6
REMARK VINA RESULT:      -6.5      4.075      6.347
REMARK  2 active torsions:
REMARK  status: ('A' for Active; 'I' for Inactive)
REMARK    1  A    between atoms: C4_5  and  C7_8 
REMARK    2  A    between atoms: C7_8  and  N1_9 
ROOT
ATOM      1  N1   11 d         -12.479 207.457 114.029  0.00  0.00    -0.066 N 
ATOM      2  C8   11 d         -12.855 206.000 114.273  0.00  0.00     0.262 C 
ATOM      3  C9   11 d         -14.250 205.665 114.879  0.00  0.00     0.260 C 
ATOM      4  N2   11 d         -14.580 206.240 116.226  0.00  0.00    -0.073 N 
ATOM      5  C10  11 d         -14.235 207.687 116.418  0.00  0.00     0.234 C 
ATOM      6  C11  11 d         -14.490 208.619 115.212  0.00  0.00     0.055 C 
ATOM      7  C12  11 d         -13.677 208.371 113.910  0.00  0.00     0.237 C 
ATOM      8  H7   11 d         -11.893 207.797 114.864  0.00  0.00     0.280 HD
ATOM      9  H12  11 d         -15.634 206.112 116.401  0.00  0.00     0.277 HD
ATOM     10  H13  11 d         -14.090 205.664 116.991  0.00  0.00     0.277 HD
ENDROOT
BRANCH   1  11
ATOM     11  C7   11 d         -11.563 207.572 112.831  0.00  0.00     0.273 C 
BRANCH  11  12
ATOM     12  C4   11 d         -10.272 208.303 113.137  0.00  0.00    -0.032 A 
ATOM     13  C3   11 d          -9.305 208.513 112.129  0.00  0.00     0.012 A 
ATOM     14  C2   11 d          -8.083 209.133 112.435  0.00  0.00     0.043 A 
ATOM     15  C1   11 d          -7.803 209.521 113.751  0.00  0.00     0.116 A 
ATOM     16  F1   11 d          -6.623 210.132 114.046  0.00  0.00    -0.206 F 
ATOM     17  C6   11 d          -8.736 209.275 114.769  0.00  0.00     0.043 A 
ATOM     18  C5   11 d          -9.959 208.654 114.467  0.00  0.00     0.012 A 
ENDBRANCH  11  12
ENDBRANCH   1  11
TORSDOF 2
ENDMDL
MODEL 7
REMARK VINA RESULT:      -6.5      3.084      4.907
REMARK  2 active torsions:
REMARK  status: ('A' for Active; 'I' for Inactive)
REMARK    1  A    between atoms: C4_5  and  C7_8 
REMARK    2  A    between atoms: C7_8  and  N1_9 
ROOT
ATOM      1  N1   11 d          -7.704 209.005 113.262  0.00  0.00    -0.066 N 
ATOM      2  C8   11 d          -7.743 209.897 114.498  0.00  0.00     0.262 C 
ATOM      3  C9   11 d          -6.433 210.136 115.304  0.00  0.00     0.260 C 
ATOM      4  N2   11 d          -5.741 208.935 115.881  0.00  0.00    -0.073 N 
ATOM      5  C10  11 d          -5.608 207.757 114.962  0.00  0.00     0.234 C 
ATOM      6  C11  11 d          -5.281 208.072 113.485  0.00  0.00     0.055 C 
ATOM      7  C12  11 d          -6.325 208.877 112.659  0.00  0.00     0.237 C 
ATOM      8  H7   11 d          -8.026 208.020 113.549  0.00  0.00     0.280 HD
ATOM      9  H12  11 d          -4.758 209.231 116.203  0.00  0.00     0.277 HD
ATOM     10  H13  11 d          -6.253 208.621 116.773  0.00  0.00     0.277 HD
ENDROOT
BRANCH   1  11
ATOM     11  C7   11 d          -8.721 209.470 112.243  0.00  0.00     0.273 C 
BRANCH  11  12
ATOM     12  C4   11 d          -9.794 208.439 111.959  0.00  0.00    -0.032 A 
ATOM     13  C3   11 d         -10.295 208.260 110.651  0.00  0.00     0.012 A 
ATOM     14  C2   11 d         -11.334 207.349 110.406  0.00  0.00     0.043 A 
ATOM     15  C1   11 d         -11.903 206.632 111.467  0.00  0.00     0.116 A 
ATOM     16  F1   11 d         -12.904 205.740 111.228  0.00  0.00    -0.206 F 
ATOM     17  C6   11 d         -11.447 206.836 112.776  0.00  0.00     0.043 A 
ATOM     18  C5   11 d         -10.407 207.748 113.025  0.00  0.00     0.012 A 
ENDBRANCH  11  12
ENDBRANCH   1  11
TORSDOF 2
ENDMDL
MODEL 8
REMARK VINA RESULT:      -6.4      1.332      2.321
REMARK  2 active torsions:
REMARK  status: ('A' for Active; 'I' for Inactive)
REMARK    1  A    between atoms: C4_5  and  C7_8 
REMARK    2  A    between atoms: C7_8  and  N1_9 
ROOT
ATOM      1  N1   11 d         -10.418 207.080 113.794  0.00  0.00    -0.066 N 
ATOM      2  C8   11 d         -10.572 207.783 115.138  0.00  0.00     0.262 C 
ATOM      3  C9   11 d         -10.158 209.278 115.266  0.00  0.00     0.260 C 
ATOM      4  N2   11 d          -8.733 209.636 114.955  0.00  0.00    -0.073 N 
ATOM      5  C10  11 d          -8.163 209.017 113.714  0.00  0.00     0.234 C 
ATOM      6  C11  11 d          -9.110 208.923 112.496  0.00  0.00     0.055 C 
ATOM      7  C12  11 d         -10.379 208.033 112.622  0.00  0.00     0.237 C 
ATOM      8  H7   11 d          -9.490 206.538 113.802  0.00  0.00     0.280 HD
ATOM      9  H12  11 d          -8.663 210.706 114.869  0.00  0.00     0.277 HD
ATOM     10  H13  11 d          -8.108 209.373 115.791  0.00  0.00     0.277 HD
ENDROOT
BRANCH   1  11
ATOM     11  C7   11 d         -11.489 206.025 113.624  0.00  0.00     0.273 C 
BRANCH  11  12
ATOM     12  C4   11 d         -12.648 206.487 112.764  0.00  0.00    -0.032 A 
ATOM     13  C3   11 d         -13.776 207.108 113.346  0.00  0.00     0.012 A 
ATOM     14  C2   11 d         -14.874 207.474 112.552  0.00  0.00     0.043 A 
ATOM     15  C1   11 d         -14.870 207.199 111.178  0.00  0.00     0.116 A 
ATOM     16  F1   11 d         -15.930 207.564 110.406  0.00  0.00    -0.206 F 
ATOM     17  C6   11 d         -13.776 206.541 110.598  0.00  0.00     0.043 A 
ATOM     18  C5   11 d         -12.676 206.172 111.389  0.00  0.00     0.012 A 
ENDBRANCH  11  12
ENDBRANCH   1  11
TORSDOF 2
ENDMDL
MODEL 9
REMARK VINA RESULT:      -5.8      3.452      5.356
REMARK  2 active torsions:
REMARK  status: ('A' for Active; 'I' for Inactive)
REMARK    1  A    between atoms: C4_5  and  C7_8 
REMARK    2  A    between atoms: C7_8  and  N1_9 
ROOT
ATOM      1  N1   11 d         -14.583 207.071 112.365  0.00  0.00    -0.066 N 
ATOM      2  C8   11 d         -15.284 207.421 111.057  0.00  0.00     0.262 C 
ATOM      3  C9   11 d         -14.655 206.959 109.709  0.00  0.00     0.260 C 
ATOM      4  N2   11 d         -13.267 207.435 109.389  0.00  0.00    -0.073 N 
ATOM      5  C10  11 d         -12.275 207.352 110.512  0.00  0.00     0.234 C 
ATOM      6  C11  11 d         -12.361 206.099 111.412  0.00  0.00     0.055 C 
ATOM      7  C12  11 d         -13.655 205.884 112.247  0.00  0.00     0.237 C 
ATOM      8  H7   11 d         -13.993 207.917 112.666  0.00  0.00     0.280 HD
ATOM      9  H12  11 d         -12.894 206.861 108.559  0.00  0.00     0.277 HD
ATOM     10  H13  11 d         -13.310 208.452 109.040  0.00  0.00     0.277 HD
ENDROOT
BRANCH   1  11
ATOM     11  C7   11 d         -15.597 206.883 113.472  0.00  0.00     0.273 C 
BRANCH  11  12
ATOM     12  C4   11 d         -14.962 206.705 114.836  0.00  0.00    -0.032 A 
ATOM     13  C3   11 d         -14.355 207.796 115.497  0.00  0.00     0.012 A 
ATOM     14  C2   11 d         -13.711 207.610 116.731  0.00  0.00     0.043 A 
ATOM     15  C1   11 d         -13.642 206.333 117.301  0.00  0.00     0.116 A 
ATOM     16  F1   11 d         -13.027 206.155 118.503  0.00  0.00    -0.206 F 
ATOM     17  C6   11 d         -14.200 205.235 116.632  0.00  0.00     0.043 A 
ATOM     18  C5   11 d         -14.844 205.416 115.397  0.00  0.00     0.012 A 
ENDBRANCH  11  12
ENDBRANCH   1  11
TORSDOF 2
ENDMDL
MODEL 10
REMARK VINA RESULT:      -5.8      2.792      4.664
REMARK  2 active torsions:
REMARK  status: ('A' for Active; 'I' for Inactive)
REMARK    1  A    between atoms: C4_5  and  C7_8 
REMARK    2  A    between atoms: C7_8  and  N1_9 
ROOT
ATOM      1  N1   11 d          -8.553 208.631 115.198  0.00  0.00    -0.066 N 
ATOM      2  C8   11 d          -8.039 208.322 116.599  0.00  0.00     0.262 C 
ATOM      3  C9   11 d          -6.559 208.648 116.956  0.00  0.00     0.260 C 
ATOM      4  N2   11 d          -5.484 207.987 116.141  0.00  0.00    -0.073 N 
ATOM      5  C10  11 d          -5.701 207.988 114.656  0.00  0.00     0.234 C 
ATOM      6  C11  11 d          -6.303 209.276 114.051  0.00  0.00     0.055 C 
ATOM      7  C12  11 d          -7.740 209.686 114.482  0.00  0.00     0.237 C 
ATOM      8  H7   11 d          -8.501 207.730 114.614  0.00  0.00     0.280 HD
ATOM      9  H12  11 d          -4.549 208.477 116.352  0.00  0.00     0.277 HD
ATOM     10  H13  11 d          -5.358 206.971 116.471  0.00  0.00     0.277 HD
ENDROOT
BRANCH   1  11
ATOM     11  C7   11 d         -10.022 208.989 115.241  0.00  0.00     0.273 C 
BRANCH  11  12
ATOM     12  C4   11 d         -10.861 208.179 114.274  0.00  0.00    -0.032 A 
ATOM     13  C3   11 d         -11.901 207.347 114.743  0.00  0.00     0.012 A 
ATOM     14  C2   11 d         -12.631 206.549 113.849  0.00  0.00     0.043 A 
ATOM     15  C1   11 d         -12.312 206.552 112.484  0.00  0.00     0.116 A 
ATOM     16  F1   11 d         -13.028 205.787 111.615  0.00  0.00    -0.206 F 
ATOM     17  C6   11 d         -11.251 207.338 112.014  0.00  0.00     0.043 A 
ATOM     18  C5   11 d         -10.518 208.137 112.907  0.00  0.00     0.012 A 
ENDBRANCH  11  12
ENDBRANCH   1  11
TORSDOF 2
ENDMDL
