MODEL 1
REMARK VINA RESULT:      -7.3      0.000      0.000
REMARK  4 active torsions:
REMARK  status: ('A' for Active; 'I' for Inactive)
REMARK    1  A    between atoms: C1_1  and  C2_4 
REMARK    2  A    between atoms: C2_4  and  C3_5 
REMARK    3  A    between atoms: C5_7  and  C6_8 
REMARK    4  A    between atoms: C6_8  and  C7_9 
ROOT
ATOM      1  C3   11 d         -12.394 206.756 113.969  0.00  0.00    -0.030 C 
ATOM      2  C4   11 d         -13.423 206.129 112.974  0.00  0.00     0.020 C 
ATOM      3  C5   11 d         -14.885 206.147 113.528  0.00  0.00    -0.030 C 
ATOM      4  C8   11 d         -15.260 207.631 113.814  0.00  0.00     0.014 C 
ATOM      5  C9   11 d         -14.270 208.254 114.826  0.00  0.00    -0.013 C 
ATOM      6  C10  11 d         -12.838 208.222 114.243  0.00  0.00     0.014 C 
ATOM      7  C11  11 d         -14.307 207.450 116.146  0.00  0.00     0.009 C 
ATOM      8  C12  11 d         -13.901 205.983 115.874  0.00  0.00    -0.013 C 
ATOM      9  C13  11 d         -12.468 205.942 115.295  0.00  0.00     0.014 C 
ATOM     10  C14  11 d         -14.889 205.351 114.866  0.00  0.00     0.014 C 
ENDROOT
BRANCH   1  11
ATOM     11  C2   11 d         -10.975 206.688 113.325  0.00  0.00     0.122 C 
BRANCH  11  12
ATOM     12  C1   11 d         -10.499 207.756 112.366  0.00  0.00     0.173 C 
ATOM     13  O1   11 d         -10.862 207.777 111.109  0.00  0.00    -0.648 OA
ATOM     14  O2   11 d          -9.686 208.684 112.808  0.00  0.00    -0.648 OA
ENDBRANCH  11  12
ENDBRANCH   1  11
BRANCH   3  15
ATOM     15  C6   11 d         -15.827 205.504 112.466  0.00  0.00     0.122 C 
BRANCH  15  16
ATOM     16  C7   11 d         -16.611 206.360 111.494  0.00  0.00     0.173 C 
ATOM     17  O3   11 d         -17.861 206.684 111.703  0.00  0.00    -0.648 OA
ATOM     18  O4   11 d         -16.015 206.790 110.409  0.00  0.00    -0.648 OA
ENDBRANCH  15  16
ENDBRANCH   3  15
TORSDOF 4
ENDMDL
MODEL 2
REMARK VINA RESULT:      -7.3      0.302      4.865
REMARK  4 active torsions:
REMARK  status: ('A' for Active; 'I' for Inactive)
REMARK    1  A    between atoms: C1_1  and  C2_4 
REMARK    2  A    between atoms: C2_4  and  C3_5 
REMARK    3  A    between atoms: C5_7  and  C6_8 
REMARK    4  A    between atoms: C6_8  and  C7_9 
ROOT
ATOM      1  C3   11 d         -14.922 206.149 113.521  0.00  0.00    -0.030 C 
ATOM      2  C4   11 d         -13.456 206.066 112.985  0.00  0.00     0.020 C 
ATOM      3  C5   11 d         -12.415 206.675 113.980  0.00  0.00    -0.030 C 
ATOM      4  C8   11 d         -12.534 205.892 115.320  0.00  0.00     0.014 C 
ATOM      5  C9   11 d         -13.971 205.996 115.882  0.00  0.00    -0.013 C 
ATOM      6  C10  11 d         -14.971 205.382 114.874  0.00  0.00     0.014 C 
ATOM      7  C11  11 d         -14.326 207.482 116.120  0.00  0.00     0.009 C 
ATOM      8  C12  11 d         -14.244 208.258 114.785  0.00  0.00    -0.013 C 
ATOM      9  C13  11 d         -15.244 207.652 113.773  0.00  0.00     0.014 C 
ATOM     10  C14  11 d         -12.808 208.162 114.219  0.00  0.00     0.014 C 
ENDROOT
BRANCH   1  11
ATOM     11  C2   11 d         -15.876 205.521 112.460  0.00  0.00     0.122 C 
BRANCH  11  12
ATOM     12  C1   11 d         -16.618 206.385 111.464  0.00  0.00     0.173 C 
ATOM     13  O1   11 d         -16.048 206.848 110.381  0.00  0.00    -0.648 OA
ATOM     14  O2   11 d         -17.870 206.688 111.703  0.00  0.00    -0.648 OA
ENDBRANCH  11  12
ENDBRANCH   1  11
BRANCH   3  15
ATOM     15  C6   11 d         -10.993 206.542 113.355  0.00  0.00     0.122 C 
BRANCH  15  16
ATOM     16  C7   11 d         -10.248 207.754 112.837  0.00  0.00     0.173 C 
ATOM     17  O3   11 d          -9.412 208.429 113.583  0.00  0.00    -0.648 OA
ATOM     18  O4   11 d         -10.449 208.137 111.600  0.00  0.00    -0.648 OA
ENDBRANCH  15  16
ENDBRANCH   3  15
TORSDOF 4
ENDMDL
MODEL 3
REMARK VINA RESULT:      -7.0      2.514      3.797
REMARK  4 active torsions:
REMARK  status: ('A' for Active; 'I' for Inactive)
REMARK    1  A    between atoms: C1_1  and  C2_4 
REMARK    2  A    between atoms: C2_4  and  C3_5 
REMARK    3  A    between atoms: C5_7  and  C6_8 
REMARK    4  A    between atoms: C6_8  and  C7_9 
ROOT
ATOM      1  C3   11 d         -13.468 206.244 115.681  0.00  0.00    -0.030 C 
ATOM      2  C4   11 d         -14.583 205.665 114.752  0.00  0.00     0.020 C 
ATOM      3  C5   11 d         -14.492 206.209 113.289  0.00  0.00    -0.030 C 
ATOM      4  C8   11 d         -13.089 205.825 112.734  0.00  0.00     0.014 C 
ATOM      5  C9   11 d         -11.973 206.423 113.623  0.00  0.00    -0.013 C 
ATOM      6  C10  11 d         -12.093 205.861 115.058  0.00  0.00     0.014 C 
ATOM      7  C11  11 d         -12.111 207.962 113.658  0.00  0.00     0.009 C 
ATOM      8  C12  11 d         -13.489 208.349 114.242  0.00  0.00    -0.013 C 
ATOM      9  C13  11 d         -13.615 207.794 115.680  0.00  0.00     0.014 C 
ATOM     10  C14  11 d         -14.610 207.759 113.355  0.00  0.00     0.014 C 
ENDROOT
BRANCH   1  11
ATOM     11  C2   11 d         -13.648 205.645 117.108  0.00  0.00     0.122 C 
BRANCH  11  12
ATOM     12  C1   11 d         -12.870 206.184 118.289  0.00  0.00     0.173 C 
ATOM     13  O1   11 d         -13.369 207.077 119.104  0.00  0.00    -0.648 OA
ATOM     14  O2   11 d         -11.651 205.749 118.492  0.00  0.00    -0.648 OA
ENDBRANCH  11  12
ENDBRANCH   1  11
BRANCH   3  15
ATOM     15  C6   11 d         -15.642 205.573 112.450  0.00  0.00     0.122 C 
BRANCH  15  16
ATOM     16  C7   11 d         -16.438 206.396 111.461  0.00  0.00     0.173 C 
ATOM     17  O3   11 d         -15.947 206.764 110.305  0.00  0.00    -0.648 OA
ATOM     18  O4   11 d         -17.660 206.751 111.775  0.00  0.00    -0.648 OA
ENDBRANCH  15  16
ENDBRANCH   3  15
TORSDOF 4
ENDMDL
MODEL 4
REMARK VINA RESULT:      -7.0      2.577      5.026
REMARK  4 active torsions:
REMARK  status: ('A' for Active; 'I' for Inactive)
REMARK    1  A    between atoms: C1_1  and  C2_4 
REMARK    2  A    between atoms: C2_4  and  C3_5 
REMARK    3  A    between atoms: C5_7  and  C6_8 
REMARK    4  A    between atoms: C6_8  and  C7_9 
ROOT
ATOM      1  C3   11 d         -14.240 206.178 113.002  0.00  0.00    -0.030 C 
ATOM      2  C4   11 d         -14.404 205.516 114.408  0.00  0.00     0.020 C 
ATOM      3  C5   11 d         -13.382 206.066 115.456  0.00  0.00    -0.030 C 
ATOM      4  C8   11 d         -13.604 207.603 115.565  0.00  0.00     0.014 C 
ATOM      5  C9   11 d         -13.408 208.276 114.187  0.00  0.00    -0.013 C 
ATOM      6  C10  11 d         -14.436 207.712 113.179  0.00  0.00     0.014 C 
ATOM      7  C11  11 d         -11.976 207.997 113.674  0.00  0.00     0.009 C 
ATOM      8  C12  11 d         -11.763 206.472 113.530  0.00  0.00    -0.013 C 
ATOM      9  C13  11 d         -12.785 205.900 112.520  0.00  0.00     0.014 C 
ATOM     10  C14  11 d         -11.953 205.791 114.906  0.00  0.00     0.014 C 
ENDROOT
BRANCH   1  11
ATOM     11  C2   11 d         -15.298 205.563 112.036  0.00  0.00     0.122 C 
BRANCH  11  12
ATOM     12  C1   11 d         -16.258 206.442 111.265  0.00  0.00     0.173 C 
ATOM     13  O1   11 d         -17.455 206.726 111.711  0.00  0.00    -0.648 OA
ATOM     14  O2   11 d         -15.881 206.923 110.107  0.00  0.00    -0.648 OA
ENDBRANCH  11  12
ENDBRANCH   1  11
BRANCH   3  15
ATOM     15  C6   11 d         -13.630 205.346 116.817  0.00  0.00     0.122 C 
BRANCH  15  16
ATOM     16  C7   11 d         -13.103 205.920 118.114  0.00  0.00     0.173 C 
ATOM     17  O3   11 d         -11.845 205.821 118.459  0.00  0.00    -0.648 OA
ATOM     18  O4   11 d         -13.936 206.537 118.915  0.00  0.00    -0.648 OA
ENDBRANCH  15  16
ENDBRANCH   3  15
TORSDOF 4
ENDMDL
MODEL 5
REMARK VINA RESULT:      -6.8      2.611      4.260
REMARK  4 active torsions:
REMARK  status: ('A' for Active; 'I' for Inactive)
REMARK    1  A    between atoms: C1_1  and  C2_4 
REMARK    2  A    between atoms: C2_4  and  C3_5 
REMARK    3  A    between atoms: C5_7  and  C6_8 
REMARK    4  A    between atoms: C6_8  and  C7_9 
ROOT
ATOM      1  C3   11 d         -12.590 206.721 113.796  0.00  0.00    -0.030 C 
ATOM      2  C4   11 d         -12.387 206.336 115.297  0.00  0.00     0.020 C 
ATOM      3  C5   11 d         -13.721 206.358 116.111  0.00  0.00    -0.030 C 
ATOM      4  C8   11 d         -14.699 205.353 115.435  0.00  0.00     0.014 C 
ATOM      5  C9   11 d         -14.939 205.743 113.958  0.00  0.00    -0.013 C 
ATOM      6  C10  11 d         -13.601 205.706 113.185  0.00  0.00     0.014 C 
ATOM      7  C11  11 d         -15.536 207.167 113.891  0.00  0.00     0.009 C 
ATOM      8  C12  11 d         -14.552 208.175 114.529  0.00  0.00    -0.013 C 
ATOM      9  C13  11 d         -13.212 208.148 113.758  0.00  0.00     0.014 C 
ATOM     10  C14  11 d         -14.310 207.795 116.008  0.00  0.00     0.014 C 
ENDROOT
BRANCH   1  11
ATOM     11  C2   11 d         -11.208 206.671 113.077  0.00  0.00     0.122 C 
BRANCH  11  12
ATOM     12  C1   11 d         -10.924 207.531 111.865  0.00  0.00     0.173 C 
ATOM     13  O1   11 d         -11.450 207.280 110.694  0.00  0.00    -0.648 OA
ATOM     14  O2   11 d         -10.114 208.553 111.993  0.00  0.00    -0.648 OA
ENDBRANCH  11  12
ENDBRANCH   1  11
BRANCH   3  15
ATOM     15  C6   11 d         -13.409 205.961 117.587  0.00  0.00     0.122 C 
BRANCH  15  16
ATOM     16  C7   11 d         -13.163 207.014 118.646  0.00  0.00     0.173 C 
ATOM     17  O3   11 d         -14.061 207.319 119.547  0.00  0.00    -0.648 OA
ATOM     18  O4   11 d         -12.011 207.638 118.659  0.00  0.00    -0.648 OA
ENDBRANCH  15  16
ENDBRANCH   3  15
TORSDOF 4
ENDMDL
MODEL 6
REMARK VINA RESULT:      -6.8      2.331      4.149
REMARK  4 active torsions:
REMARK  status: ('A' for Active; 'I' for Inactive)
REMARK    1  A    between atoms: C1_1  and  C2_4 
REMARK    2  A    between atoms: C2_4  and  C3_5 
REMARK    3  A    between atoms: C5_7  and  C6_8 
REMARK    4  A    between atoms: C6_8  and  C7_9 
ROOT
ATOM      1  C3   11 d         -13.159 206.449 111.381  0.00  0.00    -0.030 C 
ATOM      2  C4   11 d         -13.206 207.227 112.735  0.00  0.00     0.020 C 
ATOM      3  C5   11 d         -14.649 207.318 113.328  0.00  0.00    -0.030 C 
ATOM      4  C8   11 d         -15.164 205.864 113.535  0.00  0.00     0.014 C 
ATOM      5  C9   11 d         -15.158 205.092 112.195  0.00  0.00    -0.013 C 
ATOM      6  C10  11 d         -13.716 205.019 111.642  0.00  0.00     0.014 C 
ATOM      7  C11  11 d         -16.065 205.820 111.177  0.00  0.00     0.009 C 
ATOM      8  C12  11 d         -15.538 207.254 110.940  0.00  0.00    -0.013 C 
ATOM      9  C13  11 d         -14.097 207.189 110.382  0.00  0.00     0.014 C 
ATOM     10  C14  11 d         -15.545 208.034 112.276  0.00  0.00     0.014 C 
ENDROOT
BRANCH   1  11
ATOM     11  C2   11 d         -11.684 206.416 110.876  0.00  0.00     0.122 C 
BRANCH  11  12
ATOM     12  C1   11 d         -10.954 207.689 110.506  0.00  0.00     0.173 C 
ATOM     13  O1   11 d         -10.234 208.356 111.371  0.00  0.00    -0.648 OA
ATOM     14  O2   11 d         -11.059 208.142 109.282  0.00  0.00    -0.648 OA
ENDBRANCH  11  12
ENDBRANCH   1  11
BRANCH   3  15
ATOM     15  C6   11 d         -14.585 208.108 114.671  0.00  0.00     0.122 C 
BRANCH  15  16
ATOM     16  C7   11 d         -13.722 207.633 115.820  0.00  0.00     0.173 C 
ATOM     17  O3   11 d         -12.476 208.010 115.956  0.00  0.00    -0.648 OA
ATOM     18  O4   11 d         -14.240 206.819 116.705  0.00  0.00    -0.648 OA
ENDBRANCH  15  16
ENDBRANCH   3  15
TORSDOF 4
ENDMDL
MODEL 7
REMARK VINA RESULT:      -6.8      2.612      4.879
REMARK  4 active torsions:
REMARK  status: ('A' for Active; 'I' for Inactive)
REMARK    1  A    between atoms: C1_1  and  C2_4 
REMARK    2  A    between atoms: C2_4  and  C3_5 
REMARK    3  A    between atoms: C5_7  and  C6_8 
REMARK    4  A    between atoms: C6_8  and  C7_9 
ROOT
ATOM      1  C3   11 d         -13.809 206.384 116.115  0.00  0.00    -0.030 C 
ATOM      2  C4   11 d         -12.433 206.306 115.378  0.00  0.00     0.020 C 
ATOM      3  C5   11 d         -12.541 206.669 113.861  0.00  0.00    -0.030 C 
ATOM      4  C8   11 d         -13.113 208.114 113.764  0.00  0.00     0.014 C 
ATOM      5  C9   11 d         -14.492 208.197 114.459  0.00  0.00    -0.013 C 
ATOM      6  C10  11 d         -14.346 207.836 115.955  0.00  0.00     0.014 C 
ATOM      7  C11  11 d         -15.471 207.209 113.783  0.00  0.00     0.009 C 
ATOM      8  C12  11 d         -14.925 205.768 113.907  0.00  0.00    -0.013 C 
ATOM      9  C13  11 d         -14.780 205.398 115.402  0.00  0.00     0.014 C 
ATOM     10  C14  11 d         -13.547 205.675 113.211  0.00  0.00     0.014 C 
ENDROOT
BRANCH   1  11
ATOM     11  C2   11 d         -13.593 206.005 117.612  0.00  0.00     0.122 C 
BRANCH  11  12
ATOM     12  C1   11 d         -13.239 207.055 118.643  0.00  0.00     0.173 C 
ATOM     13  O1   11 d         -12.094 207.688 118.629  0.00  0.00    -0.648 OA
ATOM     14  O2   11 d         -14.105 207.329 119.587  0.00  0.00    -0.648 OA
ENDBRANCH  11  12
ENDBRANCH   1  11
BRANCH   3  15
ATOM     15  C6   11 d         -11.122 206.562 113.223  0.00  0.00     0.122 C 
BRANCH  15  16
ATOM     16  C7   11 d         -10.329 207.800 112.864  0.00  0.00     0.173 C 
ATOM     17  O3   11 d          -9.641 208.469 113.754  0.00  0.00    -0.648 OA
ATOM     18  O4   11 d         -10.332 208.213 111.621  0.00  0.00    -0.648 OA
ENDBRANCH  15  16
ENDBRANCH   3  15
TORSDOF 4
ENDMDL
MODEL 8
REMARK VINA RESULT:      -6.7      2.931      4.227
REMARK  4 active torsions:
REMARK  status: ('A' for Active; 'I' for Inactive)
REMARK    1  A    between atoms: C1_1  and  C2_4 
REMARK    2  A    between atoms: C2_4  and  C3_5 
REMARK    3  A    between atoms: C5_7  and  C6_8 
REMARK    4  A    between atoms: C6_8  and  C7_9 
ROOT
ATOM      1  C3   11 d         -14.158 205.882 115.114  0.00  0.00    -0.030 C 
ATOM      2  C4   11 d         -14.405 205.502 113.619  0.00  0.00     0.020 C 
ATOM      3  C5   11 d         -13.616 206.416 112.626  0.00  0.00    -0.030 C 
ATOM      4  C8   11 d         -12.102 206.277 112.964  0.00  0.00     0.014 C 
ATOM      5  C9   11 d         -11.836 206.685 114.432  0.00  0.00    -0.013 C 
ATOM      6  C10  11 d         -12.629 205.759 115.383  0.00  0.00     0.014 C 
ATOM      7  C11  11 d         -12.280 208.150 114.648  0.00  0.00     0.009 C 
ATOM      8  C12  11 d         -13.791 208.286 114.348  0.00  0.00    -0.013 C 
ATOM      9  C13  11 d         -14.592 207.366 115.299  0.00  0.00     0.014 C 
ATOM     10  C14  11 d         -14.065 207.884 112.881  0.00  0.00     0.014 C 
ENDROOT
BRANCH   1  11
ATOM     11  C2   11 d         -14.987 204.918 116.017  0.00  0.00     0.122 C 
BRANCH  11  12
ATOM     12  C1   11 d         -14.402 204.335 117.284  0.00  0.00     0.173 C 
ATOM     13  O1   11 d         -14.096 203.067 117.392  0.00  0.00    -0.648 OA
ATOM     14  O2   11 d         -14.207 205.125 118.310  0.00  0.00    -0.648 OA
ENDBRANCH  11  12
ENDBRANCH   1  11
BRANCH   3  15
ATOM     15  C6   11 d         -13.930 205.955 111.170  0.00  0.00     0.122 C 
BRANCH  15  16
ATOM     16  C7   11 d         -13.992 206.949 110.030  0.00  0.00     0.173 C 
ATOM     17  O3   11 d         -15.127 207.369 109.533  0.00  0.00    -0.648 OA
ATOM     18  O4   11 d         -12.871 207.403 109.527  0.00  0.00    -0.648 OA
ENDBRANCH  15  16
ENDBRANCH   3  15
TORSDOF 4
ENDMDL
MODEL 9
REMARK VINA RESULT:      -6.7      2.382      4.426
REMARK  4 active torsions:
REMARK  status: ('A' for Active; 'I' for Inactive)
REMARK    1  A    between atoms: C1_1  and  C2_4 
REMARK    2  A    between atoms: C2_4  and  C3_5 
REMARK    3  A    between atoms: C5_7  and  C6_8 
REMARK    4  A    between atoms: C6_8  and  C7_9 
ROOT
ATOM      1  C3   11 d         -14.548 207.113 113.391  0.00  0.00    -0.030 C 
ATOM      2  C4   11 d         -13.147 207.024 112.705  0.00  0.00     0.020 C 
ATOM      3  C5   11 d         -13.216 206.406 111.270  0.00  0.00    -0.030 C 
ATOM      4  C8   11 d         -14.165 207.301 110.421  0.00  0.00     0.014 C 
ATOM      5  C9   11 d         -15.568 207.369 111.068  0.00  0.00    -0.013 C 
ATOM      6  C10  11 d         -15.460 207.987 112.482  0.00  0.00     0.014 C 
ATOM      7  C11  11 d         -16.158 205.944 111.172  0.00  0.00     0.009 C 
ATOM      8  C12  11 d         -15.237 205.061 112.045  0.00  0.00    -0.013 C 
ATOM      9  C13  11 d         -15.128 205.670 113.462  0.00  0.00     0.014 C 
ATOM     10  C14  11 d         -13.833 204.984 111.401  0.00  0.00     0.014 C 
ENDROOT
BRANCH   1  11
ATOM     11  C2   11 d         -14.369 207.737 114.808  0.00  0.00     0.122 C 
BRANCH  11  12
ATOM     12  C1   11 d         -13.137 207.453 115.640  0.00  0.00     0.173 C 
ATOM     13  O1   11 d         -12.159 208.316 115.754  0.00  0.00    -0.648 OA
ATOM     14  O2   11 d         -13.043 206.301 116.254  0.00  0.00    -0.648 OA
ENDBRANCH  11  12
ENDBRANCH   1  11
BRANCH   3  15
ATOM     15  C6   11 d         -11.774 206.363 110.678  0.00  0.00     0.122 C 
BRANCH  15  16
ATOM     16  C7   11 d         -11.005 207.635 110.395  0.00  0.00     0.173 C 
ATOM     17  O3   11 d         -10.217 208.184 111.284  0.00  0.00    -0.648 OA
ATOM     18  O4   11 d         -11.132 208.202 109.222  0.00  0.00    -0.648 OA
ENDBRANCH  15  16
ENDBRANCH   3  15
TORSDOF 4
ENDMDL
MODEL 10
REMARK VINA RESULT:      -5.3      3.450      5.058
REMARK  4 active torsions:
REMARK  status: ('A' for Active; 'I' for Inactive)
REMARK    1  A    between atoms: C1_1  and  C2_4 
REMARK    2  A    between atoms: C2_4  and  C3_5 
REMARK    3  A    between atoms: C5_7  and  C6_8 
REMARK    4  A    between atoms: C6_8  and  C7_9 
ROOT
ATOM      1  C3   11 d         -11.358 207.833 113.854  0.00  0.00    -0.030 C 
ATOM      2  C4   11 d         -10.774 207.859 115.304  0.00  0.00     0.020 C 
ATOM      3  C5   11 d         -11.688 207.121 116.335  0.00  0.00    -0.030 C 
ATOM      4  C8   11 d         -11.844 205.649 115.853  0.00  0.00     0.014 C 
ATOM      5  C9   11 d         -12.456 205.607 114.434  0.00  0.00    -0.013 C 
ATOM      6  C10  11 d         -11.525 206.341 113.442  0.00  0.00     0.014 C 
ATOM      7  C11  11 d         -13.841 206.295 114.448  0.00  0.00     0.009 C 
ATOM      8  C12  11 d         -13.686 207.768 114.891  0.00  0.00    -0.013 C 
ATOM      9  C13  11 d         -12.759 208.511 113.902  0.00  0.00     0.014 C 
ATOM     10  C14  11 d         -13.079 207.818 116.313  0.00  0.00     0.014 C 
ENDROOT
BRANCH   1  11
ATOM     11  C2   11 d         -10.378 208.592 112.909  0.00  0.00     0.122 C 
BRANCH  11  12
ATOM     12  C1   11 d          -8.986 208.973 113.366  0.00  0.00     0.173 C 
ATOM     13  O1   11 d          -7.961 208.174 113.218  0.00  0.00    -0.648 OA
ATOM     14  O2   11 d          -8.807 210.137 113.938  0.00  0.00    -0.648 OA
ENDBRANCH  11  12
ENDBRANCH   1  11
BRANCH   3  15
ATOM     15  C6   11 d         -11.018 207.204 117.741  0.00  0.00     0.122 C 
BRANCH  15  16
ATOM     16  C7   11 d         -11.476 206.319 118.880  0.00  0.00     0.173 C 
ATOM     17  O3   11 d         -12.709 205.891 118.977  0.00  0.00    -0.648 OA
ATOM     18  O4   11 d         -10.608 205.970 119.797  0.00  0.00    -0.648 OA
ENDBRANCH  15  16
ENDBRANCH   3  15
TORSDOF 4
ENDMDL
