MODEL 1
REMARK VINA RESULT:      -9.3      0.000      0.000
REMARK  3 active torsions:
REMARK  status: ('A' for Active; 'I' for Inactive)
REMARK    1  A    between atoms: C14_14  and  C15_15 
REMARK       I    between atoms: C15_15  and  N1_17 
REMARK    2  A    between atoms: N1_17  and  N2_18 
REMARK    3  A    between atoms: C16_19  and  C17_20 
ROOT
ATOM      1  C1   11 d         -12.357 206.755 113.420  0.00  0.00     0.027 A 
ATOM      2  C2   11 d         -11.185 207.484 112.726  0.00  0.00    -0.044 A 
ATOM      3  C3   11 d         -10.056 207.981 113.429  0.00  0.00     0.008 A 
ATOM      4  C4   11 d          -8.998 208.612 112.754  0.00  0.00     0.001 A 
ATOM      5  C5   11 d          -9.040 208.766 111.364  0.00  0.00     0.000 A 
ATOM      6  C6   11 d         -10.142 208.291 110.647  0.00  0.00     0.001 A 
ATOM      7  C7   11 d         -11.199 207.660 111.317  0.00  0.00     0.008 A 
ATOM      8  C8   11 d         -13.617 206.472 112.597  0.00  0.00    -0.044 A 
ATOM      9  C9   11 d         -14.165 205.188 112.358  0.00  0.00     0.008 A 
ATOM     10  C10  11 d         -15.374 205.045 111.659  0.00  0.00     0.001 A 
ATOM     11  C11  11 d         -16.049 206.175 111.181  0.00  0.00     0.000 A 
ATOM     12  C12  11 d         -15.512 207.451 111.392  0.00  0.00     0.001 A 
ATOM     13  C13  11 d         -14.307 207.597 112.091  0.00  0.00     0.008 A 
ATOM     14  C14  11 d         -12.565 206.409 114.900  0.00  0.00     0.099 A 
ATOM     15  C21  11 d         -11.653 205.525 114.070  0.00  0.00     0.035 A 
ENDROOT
BRANCH  14  16
ATOM     16  C15  11 d         -12.104 207.329 115.993  0.00  0.00     0.243 C 
ATOM     17  O1   11 d         -12.839 208.310 116.369  0.00  0.00    -0.271 OA
ATOM     18  N1   11 d         -10.840 207.076 116.601  0.00  0.00    -0.247 N 
ATOM     19  H12  11 d         -10.231 206.259 116.264  0.00  0.00     0.192 HD
BRANCH  18  20
ATOM     20  N2   11 d         -10.330 207.830 117.664  0.00  0.00    -0.182 NA
ATOM     21  C16  11 d          -9.047 207.797 117.913  0.00  0.00     0.175 C 
BRANCH  21  22
ATOM     22  C17  11 d          -8.535 208.518 119.096  0.00  0.00     0.094 A 
ATOM     23  O2   11 d          -9.313 208.994 120.040  0.00  0.00    -0.321 OA
ATOM     24  C18  11 d          -8.543 209.545 120.946  0.00  0.00     0.142 A 
ATOM     25  C19  11 d          -7.211 209.449 120.587  0.00  0.00     0.027 A 
ATOM     26  C20  11 d          -7.205 208.773 119.382  0.00  0.00     0.040 A 
ENDBRANCH  21  22
ENDBRANCH  18  20
ENDBRANCH  14  16
TORSDOF 3
ENDMDL
MODEL 2
REMARK VINA RESULT:      -9.1      3.045      4.647
REMARK  3 active torsions:
REMARK  status: ('A' for Active; 'I' for Inactive)
REMARK    1  A    between atoms: C14_14  and  C15_15 
REMARK       I    between atoms: C15_15  and  N1_17 
REMARK    2  A    between atoms: N1_17  and  N2_18 
REMARK    3  A    between atoms: C16_19  and  C17_20 
ROOT
ATOM      1  C1   11 d         -13.328 207.062 114.199  0.00  0.00     0.027 A 
ATOM      2  C2   11 d         -13.289 206.237 115.504  0.00  0.00    -0.044 A 
ATOM      3  C3   11 d         -12.265 206.373 116.477  0.00  0.00     0.008 A 
ATOM      4  C4   11 d         -12.284 205.624 117.665  0.00  0.00     0.001 A 
ATOM      5  C5   11 d         -13.321 204.718 117.911  0.00  0.00     0.000 A 
ATOM      6  C6   11 d         -14.341 204.559 116.968  0.00  0.00     0.001 A 
ATOM      7  C7   11 d         -14.325 205.306 115.782  0.00  0.00     0.008 A 
ATOM      8  C8   11 d         -14.347 206.665 113.126  0.00  0.00    -0.044 A 
ATOM      9  C9   11 d         -15.359 207.510 112.608  0.00  0.00     0.008 A 
ATOM     10  C10  11 d         -16.190 207.074 111.564  0.00  0.00     0.001 A 
ATOM     11  C11  11 d         -16.033 205.790 111.028  0.00  0.00     0.000 A 
ATOM     12  C12  11 d         -15.050 204.935 111.540  0.00  0.00     0.001 A 
ATOM     13  C13  11 d         -14.217 205.368 112.580  0.00  0.00     0.008 A 
ATOM     14  C14  11 d         -12.367 208.141 113.685  0.00  0.00     0.099 A 
ATOM     15  C21  11 d         -13.400 208.527 114.726  0.00  0.00     0.035 A 
ENDROOT
BRANCH  14  16
ATOM     16  C15  11 d         -10.888 208.058 113.935  0.00  0.00     0.243 C 
ATOM     17  O1   11 d         -10.167 207.217 113.289  0.00  0.00    -0.271 OA
ATOM     18  N1   11 d         -10.315 208.939 114.896  0.00  0.00    -0.247 N 
ATOM     19  H12  11 d         -10.935 209.627 115.438  0.00  0.00     0.192 HD
BRANCH  18  20
ATOM     20  N2   11 d          -8.944 208.992 115.175  0.00  0.00    -0.182 NA
ATOM     21  C16  11 d          -8.171 209.748 114.441  0.00  0.00     0.175 C 
BRANCH  21  22
ATOM     22  C17  11 d          -6.714 209.718 114.682  0.00  0.00     0.094 A 
ATOM     23  O2   11 d          -5.824 209.828 113.722  0.00  0.00    -0.321 OA
ATOM     24  C18  11 d          -4.638 209.791 114.278  0.00  0.00     0.142 A 
ATOM     25  C19  11 d          -4.739 209.636 115.649  0.00  0.00     0.027 A 
ATOM     26  C20  11 d          -6.094 209.594 115.914  0.00  0.00     0.040 A 
ENDBRANCH  21  22
ENDBRANCH  18  20
ENDBRANCH  14  16
TORSDOF 3
ENDMDL
MODEL 3
REMARK VINA RESULT:      -8.2      3.426      8.360
REMARK  3 active torsions:
REMARK  status: ('A' for Active; 'I' for Inactive)
REMARK    1  A    between atoms: C14_14  and  C15_15 
REMARK       I    between atoms: C15_15  and  N1_17 
REMARK    2  A    between atoms: N1_17  and  N2_18 
REMARK    3  A    between atoms: C16_19  and  C17_20 
ROOT
ATOM      1  C1   11 d          -6.192 208.950 115.271  0.00  0.00     0.027 A 
ATOM      2  C2   11 d          -5.317 208.455 114.099  0.00  0.00    -0.044 A 
ATOM      3  C3   11 d          -5.688 208.606 112.736  0.00  0.00     0.008 A 
ATOM      4  C4   11 d          -4.848 208.168 111.700  0.00  0.00     0.001 A 
ATOM      5  C5   11 d          -3.620 207.566 111.994  0.00  0.00     0.000 A 
ATOM      6  C6   11 d          -3.230 207.399 113.326  0.00  0.00     0.001 A 
ATOM      7  C7   11 d          -4.066 207.836 114.363  0.00  0.00     0.008 A 
ATOM      8  C8   11 d          -5.800 208.526 116.690  0.00  0.00    -0.044 A 
ATOM      9  C9   11 d          -5.491 209.413 117.751  0.00  0.00     0.008 A 
ATOM     10  C10  11 d          -5.226 208.922 119.039  0.00  0.00     0.001 A 
ATOM     11  C11  11 d          -5.255 207.544 119.288  0.00  0.00     0.000 A 
ATOM     12  C12  11 d          -5.540 206.652 118.247  0.00  0.00     0.001 A 
ATOM     13  C13  11 d          -5.808 207.139 116.960  0.00  0.00     0.008 A 
ATOM     14  C14  11 d          -7.546 209.670 115.256  0.00  0.00     0.099 A 
ATOM     15  C21  11 d          -6.290 210.481 114.999  0.00  0.00     0.035 A 
ENDROOT
BRANCH  14  16
ATOM     16  C15  11 d          -8.590 209.357 114.223  0.00  0.00     0.243 C 
ATOM     17  O1   11 d          -8.782 210.149 113.234  0.00  0.00    -0.271 OA
ATOM     18  N1   11 d          -9.348 208.159 114.371  0.00  0.00    -0.247 N 
ATOM     19  H12  11 d          -9.185 207.515 115.213  0.00  0.00     0.192 HD
BRANCH  18  20
ATOM     20  N2   11 d         -10.309 207.734 113.445  0.00  0.00    -0.182 NA
ATOM     21  C16  11 d         -11.576 207.850 113.742  0.00  0.00     0.175 C 
BRANCH  21  22
ATOM     22  C17  11 d         -12.577 207.308 112.801  0.00  0.00     0.094 A 
ATOM     23  O2   11 d         -13.863 207.559 112.895  0.00  0.00    -0.321 OA
ATOM     24  C18  11 d         -14.458 206.954 111.897  0.00  0.00     0.142 A 
ATOM     25  C19  11 d         -13.544 206.263 111.122  0.00  0.00     0.027 A 
ATOM     26  C20  11 d         -12.314 206.499 111.709  0.00  0.00     0.040 A 
ENDBRANCH  21  22
ENDBRANCH  18  20
ENDBRANCH  14  16
TORSDOF 3
ENDMDL
MODEL 4
REMARK VINA RESULT:      -8.1      3.658      4.222
REMARK  3 active torsions:
REMARK  status: ('A' for Active; 'I' for Inactive)
REMARK    1  A    between atoms: C14_14  and  C15_15 
REMARK       I    between atoms: C15_15  and  N1_17 
REMARK    2  A    between atoms: N1_17  and  N2_18 
REMARK    3  A    between atoms: C16_19  and  C17_20 
ROOT
ATOM      1  C1   11 d         -13.142 206.485 114.415  0.00  0.00     0.027 A 
ATOM      2  C2   11 d         -11.893 207.389 114.501  0.00  0.00    -0.044 A 
ATOM      3  C3   11 d         -11.249 207.708 115.726  0.00  0.00     0.008 A 
ATOM      4  C4   11 d         -10.097 208.511 115.757  0.00  0.00     0.001 A 
ATOM      5  C5   11 d          -9.559 209.018 114.569  0.00  0.00     0.000 A 
ATOM      6  C6   11 d         -10.174 208.725 113.348  0.00  0.00     0.001 A 
ATOM      7  C7   11 d         -11.324 207.923 113.315  0.00  0.00     0.008 A 
ATOM      8  C8   11 d         -13.879 206.402 113.074  0.00  0.00    -0.044 A 
ATOM      9  C9   11 d         -14.098 205.214 112.335  0.00  0.00     0.008 A 
ATOM     10  C10  11 d         -14.861 205.235 111.157  0.00  0.00     0.001 A 
ATOM     11  C11  11 d         -15.407 206.438 110.693  0.00  0.00     0.000 A 
ATOM     12  C12  11 d         -15.184 207.626 111.401  0.00  0.00     0.001 A 
ATOM     13  C13  11 d         -14.426 207.607 112.579  0.00  0.00     0.008 A 
ATOM     14  C14  11 d         -13.918 205.765 115.525  0.00  0.00     0.099 A 
ATOM     15  C21  11 d         -12.631 205.142 115.018  0.00  0.00     0.035 A 
ENDROOT
BRANCH  14  16
ATOM     16  C15  11 d         -14.094 206.380 116.884  0.00  0.00     0.243 C 
ATOM     17  O1   11 d         -14.333 207.634 117.002  0.00  0.00    -0.271 OA
ATOM     18  N1   11 d         -13.998 205.534 118.026  0.00  0.00    -0.247 N 
ATOM     19  H12  11 d         -13.783 204.489 117.910  0.00  0.00     0.192 HD
BRANCH  18  20
ATOM     20  N2   11 d         -14.198 205.981 119.338  0.00  0.00    -0.182 NA
ATOM     21  C16  11 d         -14.154 205.120 120.320  0.00  0.00     0.175 C 
BRANCH  21  22
ATOM     22  C17  11 d         -14.464 205.587 121.686  0.00  0.00     0.094 A 
ATOM     23  O2   11 d         -13.609 206.250 122.431  0.00  0.00    -0.321 OA
ATOM     24  C18  11 d         -14.206 206.533 123.562  0.00  0.00     0.142 A 
ATOM     25  C19  11 d         -15.494 206.029 123.580  0.00  0.00     0.027 A 
ATOM     26  C20  11 d         -15.665 205.417 122.353  0.00  0.00     0.040 A 
ENDBRANCH  21  22
ENDBRANCH  18  20
ENDBRANCH  14  16
TORSDOF 3
ENDMDL
MODEL 5
REMARK VINA RESULT:      -7.5      6.249     10.276
REMARK  3 active torsions:
REMARK  status: ('A' for Active; 'I' for Inactive)
REMARK    1  A    between atoms: C14_14  and  C15_15 
REMARK       I    between atoms: C15_15  and  N1_17 
REMARK    2  A    between atoms: N1_17  and  N2_18 
REMARK    3  A    between atoms: C16_19  and  C17_20 
ROOT
ATOM      1  C1   11 d          -5.081 208.682 114.856  0.00  0.00     0.027 A 
ATOM      2  C2   11 d          -6.424 208.777 114.098  0.00  0.00    -0.044 A 
ATOM      3  C3   11 d          -6.521 208.719 112.682  0.00  0.00     0.008 A 
ATOM      4  C4   11 d          -7.766 208.780 112.035  0.00  0.00     0.001 A 
ATOM      5  C5   11 d          -8.944 208.902 112.781  0.00  0.00     0.000 A 
ATOM      6  C6   11 d          -8.878 208.966 114.176  0.00  0.00     0.001 A 
ATOM      7  C7   11 d          -7.637 208.905 114.825  0.00  0.00     0.008 A 
ATOM      8  C8   11 d          -5.079 208.987 116.356  0.00  0.00    -0.044 A 
ATOM      9  C9   11 d          -4.662 208.090 117.372  0.00  0.00     0.008 A 
ATOM     10  C10  11 d          -4.620 208.499 118.714  0.00  0.00     0.001 A 
ATOM     11  C11  11 d          -4.998 209.801 119.066  0.00  0.00     0.000 A 
ATOM     12  C12  11 d          -5.430 210.694 118.078  0.00  0.00     0.001 A 
ATOM     13  C13  11 d          -5.471 210.290 116.737  0.00  0.00     0.008 A 
ATOM     14  C14  11 d          -3.655 208.506 114.318  0.00  0.00     0.099 A 
ATOM     15  C21  11 d          -4.546 207.283 114.424  0.00  0.00     0.035 A 
ENDROOT
BRANCH  14  16
ATOM     16  C15  11 d          -3.220 209.140 113.028  0.00  0.00     0.243 C 
ATOM     17  O1   11 d          -3.236 210.415 112.893  0.00  0.00    -0.271 OA
ATOM     18  N1   11 d          -2.784 208.290 111.971  0.00  0.00    -0.247 N 
ATOM     19  H12  11 d          -2.791 207.224 112.095  0.00  0.00     0.192 HD
BRANCH  18  20
ATOM     20  N2   11 d          -2.305 208.766 110.744  0.00  0.00    -0.182 NA
ATOM     21  C16  11 d          -3.108 208.800 109.714  0.00  0.00     0.175 C 
BRANCH  21  22
ATOM     22  C17  11 d          -2.565 209.211 108.404  0.00  0.00     0.094 A 
ATOM     23  O2   11 d          -1.373 208.861 107.978  0.00  0.00    -0.321 OA
ATOM     24  C18  11 d          -1.218 209.365 106.779  0.00  0.00     0.142 A 
ATOM     25  C19  11 d          -2.334 210.088 106.399  0.00  0.00     0.027 A 
ATOM     26  C20  11 d          -3.217 209.982 107.457  0.00  0.00     0.040 A 
ENDBRANCH  21  22
ENDBRANCH  18  20
ENDBRANCH  14  16
TORSDOF 3
ENDMDL
MODEL 6
REMARK VINA RESULT:      -7.5      3.711      7.040
REMARK  3 active torsions:
REMARK  status: ('A' for Active; 'I' for Inactive)
REMARK    1  A    between atoms: C14_14  and  C15_15 
REMARK       I    between atoms: C15_15  and  N1_17 
REMARK    2  A    between atoms: N1_17  and  N2_18 
REMARK    3  A    between atoms: C16_19  and  C17_20 
ROOT
ATOM      1  C1   11 d          -5.950 209.360 114.556  0.00  0.00     0.027 A 
ATOM      2  C2   11 d          -7.377 209.058 114.047  0.00  0.00    -0.044 A 
ATOM      3  C3   11 d          -8.508 208.987 114.903  0.00  0.00     0.008 A 
ATOM      4  C4   11 d          -9.793 208.739 114.395  0.00  0.00     0.001 A 
ATOM      5  C5   11 d          -9.984 208.553 113.021  0.00  0.00     0.000 A 
ATOM      6  C6   11 d          -8.889 208.612 112.154  0.00  0.00     0.001 A 
ATOM      7  C7   11 d          -7.605 208.860 112.659  0.00  0.00     0.008 A 
ATOM      8  C8   11 d          -4.785 209.182 113.578  0.00  0.00    -0.044 A 
ATOM      9  C9   11 d          -3.875 210.199 113.198  0.00  0.00     0.008 A 
ATOM     10  C10  11 d          -2.788 209.910 112.358  0.00  0.00     0.001 A 
ATOM     11  C11  11 d          -2.597 208.609 111.877  0.00  0.00     0.000 A 
ATOM     12  C12  11 d          -3.498 207.595 112.226  0.00  0.00     0.001 A 
ATOM     13  C13  11 d          -4.582 207.880 113.067  0.00  0.00     0.008 A 
ATOM     14  C14  11 d          -5.450 209.643 115.978  0.00  0.00     0.099 A 
ATOM     15  C21  11 d          -6.113 210.767 115.205  0.00  0.00     0.035 A 
ENDROOT
BRANCH  14  16
ATOM     16  C15  11 d          -6.047 208.956 117.171  0.00  0.00     0.243 C 
ATOM     17  O1   11 d          -6.203 209.590 118.275  0.00  0.00    -0.271 OA
ATOM     18  N1   11 d          -6.440 207.592 117.040  0.00  0.00    -0.247 N 
ATOM     19  H12  11 d          -6.288 207.072 116.113  0.00  0.00     0.192 HD
BRANCH  18  20
ATOM     20  N2   11 d          -7.056 206.863 118.064  0.00  0.00    -0.182 NA
ATOM     21  C16  11 d          -8.294 207.132 118.384  0.00  0.00     0.175 C 
BRANCH  21  22
ATOM     22  C17  11 d          -8.900 206.425 119.530  0.00  0.00     0.094 A 
ATOM     23  O2   11 d         -10.197 206.309 119.700  0.00  0.00    -0.321 OA
ATOM     24  C18  11 d         -10.392 205.608 120.789  0.00  0.00     0.142 A 
ATOM     25  C19  11 d          -9.188 205.259 121.375  0.00  0.00     0.027 A 
ATOM     26  C20  11 d          -8.213 205.788 120.550  0.00  0.00     0.040 A 
ENDBRANCH  21  22
ENDBRANCH  18  20
ENDBRANCH  14  16
TORSDOF 3
ENDMDL
MODEL 7
REMARK VINA RESULT:      -7.4      3.453      9.861
REMARK  3 active torsions:
REMARK  status: ('A' for Active; 'I' for Inactive)
REMARK    1  A    between atoms: C14_14  and  C15_15 
REMARK       I    between atoms: C15_15  and  N1_17 
REMARK    2  A    between atoms: N1_17  and  N2_18 
REMARK    3  A    between atoms: C16_19  and  C17_20 
ROOT
ATOM      1  C1   11 d          -4.957 209.523 118.337  0.00  0.00     0.027 A 
ATOM      2  C2   11 d          -5.679 208.252 118.837  0.00  0.00    -0.044 A 
ATOM      3  C3   11 d          -6.082 207.199 117.974  0.00  0.00     0.008 A 
ATOM      4  C4   11 d          -6.710 206.047 118.475  0.00  0.00     0.001 A 
ATOM      5  C5   11 d          -6.955 205.917 119.847  0.00  0.00     0.000 A 
ATOM      6  C6   11 d          -6.574 206.940 120.719  0.00  0.00     0.001 A 
ATOM      7  C7   11 d          -5.946 208.091 120.223  0.00  0.00     0.008 A 
ATOM      8  C8   11 d          -4.781 210.684 119.320  0.00  0.00    -0.044 A 
ATOM      9  C9   11 d          -3.539 211.244 119.710  0.00  0.00     0.008 A 
ATOM     10  C10  11 d          -3.493 212.364 120.554  0.00  0.00     0.001 A 
ATOM     11  C11  11 d          -4.679 212.938 121.029  0.00  0.00     0.000 A 
ATOM     12  C12  11 d          -5.915 212.386 120.669  0.00  0.00     0.001 A 
ATOM     13  C13  11 d          -5.965 211.270 119.825  0.00  0.00     0.008 A 
ATOM     14  C14  11 d          -4.526 209.919 116.920  0.00  0.00     0.099 A 
ATOM     15  C21  11 d          -3.660 208.945 117.695  0.00  0.00     0.035 A 
ENDROOT
BRANCH  14  16
ATOM     16  C15  11 d          -5.354 209.561 115.719  0.00  0.00     0.243 C 
ATOM     17  O1   11 d          -4.943 208.675 114.888  0.00  0.00    -0.271 OA
ATOM     18  N1   11 d          -6.603 210.223 115.537  0.00  0.00    -0.247 N 
ATOM     19  H12  11 d          -6.924 210.973 116.234  0.00  0.00     0.192 HD
BRANCH  18  20
ATOM     20  N2   11 d          -7.484 209.936 114.488  0.00  0.00    -0.182 NA
ATOM     21  C16  11 d          -8.425 209.047 114.669  0.00  0.00     0.175 C 
BRANCH  21  22
ATOM     22  C17  11 d          -9.285 208.681 113.526  0.00  0.00     0.094 A 
ATOM     23  O2   11 d         -10.418 208.031 113.658  0.00  0.00    -0.321 OA
ATOM     24  C18  11 d         -10.937 207.895 112.462  0.00  0.00     0.142 A 
ATOM     25  C19  11 d         -10.116 208.456 111.501  0.00  0.00     0.027 A 
ATOM     26  C20  11 d          -9.040 208.975 112.195  0.00  0.00     0.040 A 
ENDBRANCH  21  22
ENDBRANCH  18  20
ENDBRANCH  14  16
TORSDOF 3
ENDMDL
MODEL 8
REMARK VINA RESULT:      -7.4      3.813      7.058
REMARK  3 active torsions:
REMARK  status: ('A' for Active; 'I' for Inactive)
REMARK    1  A    between atoms: C14_14  and  C15_15 
REMARK       I    between atoms: C15_15  and  N1_17 
REMARK    2  A    between atoms: N1_17  and  N2_18 
REMARK    3  A    between atoms: C16_19  and  C17_20 
ROOT
ATOM      1  C1   11 d          -5.951 209.372 114.554  0.00  0.00     0.027 A 
ATOM      2  C2   11 d          -7.370 209.051 114.035  0.00  0.00    -0.044 A 
ATOM      3  C3   11 d          -8.504 208.958 114.884  0.00  0.00     0.008 A 
ATOM      4  C4   11 d          -9.782 208.692 114.366  0.00  0.00     0.001 A 
ATOM      5  C5   11 d          -9.962 208.509 112.991  0.00  0.00     0.000 A 
ATOM      6  C6   11 d          -8.863 208.590 112.131  0.00  0.00     0.001 A 
ATOM      7  C7   11 d          -7.586 208.855 112.645  0.00  0.00     0.008 A 
ATOM      8  C8   11 d          -4.777 209.218 113.583  0.00  0.00    -0.044 A 
ATOM      9  C9   11 d          -3.881 210.251 113.214  0.00  0.00     0.008 A 
ATOM     10  C10  11 d          -2.785 209.983 112.379  0.00  0.00     0.001 A 
ATOM     11  C11  11 d          -2.570 208.687 111.893  0.00  0.00     0.000 A 
ATOM     12  C12  11 d          -3.457 207.658 112.232  0.00  0.00     0.001 A 
ATOM     13  C13  11 d          -4.550 207.922 113.067  0.00  0.00     0.008 A 
ATOM     14  C14  11 d          -5.464 209.657 115.981  0.00  0.00     0.099 A 
ATOM     15  C21  11 d          -6.140 210.774 115.209  0.00  0.00     0.035 A 
ENDROOT
BRANCH  14  16
ATOM     16  C15  11 d          -6.058 208.954 117.167  0.00  0.00     0.243 C 
ATOM     17  O1   11 d          -6.160 207.676 117.181  0.00  0.00    -0.271 OA
ATOM     18  N1   11 d          -6.493 209.743 118.272  0.00  0.00    -0.247 N 
ATOM     19  H12  11 d          -6.414 210.812 118.238  0.00  0.00     0.192 HD
BRANCH  18  20
ATOM     20  N2   11 d          -7.012 209.199 119.452  0.00  0.00    -0.182 NA
ATOM     21  C16  11 d          -7.101 209.951 120.518  0.00  0.00     0.175 C 
BRANCH  21  22
ATOM     22  C17  11 d          -7.557 209.339 121.782  0.00  0.00     0.094 A 
ATOM     23  O2   11 d          -8.699 208.702 121.902  0.00  0.00    -0.321 OA
ATOM     24  C18  11 d          -8.779 208.264 123.134  0.00  0.00     0.142 A 
ATOM     25  C19  11 d          -7.665 208.635 123.864  0.00  0.00     0.027 A 
ATOM     26  C20  11 d          -6.863 209.332 122.980  0.00  0.00     0.040 A 
ENDBRANCH  21  22
ENDBRANCH  18  20
ENDBRANCH  14  16
TORSDOF 3
ENDMDL
MODEL 9
REMARK VINA RESULT:      -7.3      3.929      9.148
REMARK  3 active torsions:
REMARK  status: ('A' for Active; 'I' for Inactive)
REMARK    1  A    between atoms: C14_14  and  C15_15 
REMARK       I    between atoms: C15_15  and  N1_17 
REMARK    2  A    between atoms: N1_17  and  N2_18 
REMARK    3  A    between atoms: C16_19  and  C17_20 
ROOT
ATOM      1  C1   11 d          -5.535 209.269 116.207  0.00  0.00     0.027 A 
ATOM      2  C2   11 d          -4.634 208.039 115.959  0.00  0.00    -0.044 A 
ATOM      3  C3   11 d          -4.490 207.428 114.685  0.00  0.00     0.008 A 
ATOM      4  C4   11 d          -3.636 206.329 114.498  0.00  0.00     0.001 A 
ATOM      5  C5   11 d          -2.908 205.809 115.573  0.00  0.00     0.000 A 
ATOM      6  C6   11 d          -3.035 206.387 116.840  0.00  0.00     0.001 A 
ATOM      7  C7   11 d          -3.885 207.485 117.030  0.00  0.00     0.008 A 
ATOM      8  C8   11 d          -5.789 209.694 117.657  0.00  0.00    -0.044 A 
ATOM      9  C9   11 d          -5.475 210.963 118.203  0.00  0.00     0.008 A 
ATOM     10  C10  11 d          -5.827 211.279 119.524  0.00  0.00     0.001 A 
ATOM     11  C11  11 d          -6.488 210.338 120.323  0.00  0.00     0.000 A 
ATOM     12  C12  11 d          -6.790 209.072 119.805  0.00  0.00     0.001 A 
ATOM     13  C13  11 d          -6.442 208.753 118.485  0.00  0.00     0.008 A 
ATOM     14  C14  11 d          -6.406 210.067 115.229  0.00  0.00     0.099 A 
ATOM     15  C21  11 d          -4.914 210.341 115.261  0.00  0.00     0.035 A 
ENDROOT
BRANCH  14  16
ATOM     16  C15  11 d          -7.130 209.398 114.097  0.00  0.00     0.243 C 
ATOM     17  O1   11 d          -6.580 209.299 112.943  0.00  0.00    -0.271 OA
ATOM     18  N1   11 d          -8.431 208.872 114.343  0.00  0.00    -0.247 N 
ATOM     19  H12  11 d          -8.883 208.977 115.311  0.00  0.00     0.192 HD
BRANCH  18  20
ATOM     20  N2   11 d          -9.180 208.181 113.384  0.00  0.00    -0.182 NA
ATOM     21  C16  11 d          -9.702 208.840 112.383  0.00  0.00     0.175 C 
BRANCH  21  22
ATOM     22  C17  11 d         -10.570 208.118 111.433  0.00  0.00     0.094 A 
ATOM     23  O2   11 d         -10.501 208.276 110.131  0.00  0.00    -0.321 OA
ATOM     24  C18  11 d         -11.382 207.473 109.588  0.00  0.00     0.142 A 
ATOM     25  C19  11 d         -12.074 206.769 110.557  0.00  0.00     0.027 A 
ATOM     26  C20  11 d         -11.540 207.185 111.762  0.00  0.00     0.040 A 
ENDBRANCH  21  22
ENDBRANCH  18  20
ENDBRANCH  14  16
TORSDOF 3
ENDMDL
MODEL 10
REMARK VINA RESULT:      -7.2      7.836     10.848
REMARK  3 active torsions:
REMARK  status: ('A' for Active; 'I' for Inactive)
REMARK    1  A    between atoms: C14_14  and  C15_15 
REMARK       I    between atoms: C15_15  and  N1_17 
REMARK    2  A    between atoms: N1_17  and  N2_18 
REMARK    3  A    between atoms: C16_19  and  C17_20 
ROOT
ATOM      1  C1   11 d         -16.955 204.942 122.604  0.00  0.00     0.027 A 
ATOM      2  C2   11 d         -18.083 204.400 121.699  0.00  0.00    -0.044 A 
ATOM      3  C3   11 d         -17.901 204.112 120.321  0.00  0.00     0.008 A 
ATOM      4  C4   11 d         -18.947 203.592 119.541  0.00  0.00     0.001 A 
ATOM      5  C5   11 d         -20.201 203.349 120.113  0.00  0.00     0.000 A 
ATOM      6  C6   11 d         -20.411 203.629 121.467  0.00  0.00     0.001 A 
ATOM      7  C7   11 d         -19.368 204.147 122.248  0.00  0.00     0.008 A 
ATOM      8  C8   11 d         -17.329 205.431 124.006  0.00  0.00    -0.044 A 
ATOM      9  C9   11 d         -16.802 204.918 125.218  0.00  0.00     0.008 A 
ATOM     10  C10  11 d         -17.150 205.495 126.449  0.00  0.00     0.001 A 
ATOM     11  C11  11 d         -18.031 206.582 126.495  0.00  0.00     0.000 A 
ATOM     12  C12  11 d         -18.576 207.090 125.309  0.00  0.00     0.001 A 
ATOM     13  C13  11 d         -18.229 206.518 124.077  0.00  0.00     0.008 A 
ATOM     14  C14  11 d         -15.492 205.262 122.272  0.00  0.00     0.099 A 
ATOM     15  C21  11 d         -15.881 203.816 122.517  0.00  0.00     0.035 A 
ENDROOT
BRANCH  14  16
ATOM     16  C15  11 d         -15.096 205.828 120.939  0.00  0.00     0.243 C 
ATOM     17  O1   11 d         -15.600 206.932 120.527  0.00  0.00    -0.271 OA
ATOM     18  N1   11 d         -14.145 205.111 120.156  0.00  0.00    -0.247 N 
ATOM     19  H12  11 d         -13.744 204.181 120.509  0.00  0.00     0.192 HD
BRANCH  18  20
ATOM     20  N2   11 d         -13.659 205.566 118.924  0.00  0.00    -0.182 NA
ATOM     21  C16  11 d         -13.983 204.923 117.833  0.00  0.00     0.175 C 
BRANCH  21  22
ATOM     22  C17  11 d         -13.385 205.353 116.553  0.00  0.00     0.094 A 
ATOM     23  O2   11 d         -12.091 205.367 116.332  0.00  0.00    -0.321 OA
ATOM     24  C18  11 d         -11.904 205.769 115.100  0.00  0.00     0.142 A 
ATOM     25  C19  11 d         -13.110 206.049 114.483  0.00  0.00     0.027 A 
ATOM     26  C20  11 d         -14.078 205.771 115.430  0.00  0.00     0.040 A 
ENDBRANCH  21  22
ENDBRANCH  18  20
ENDBRANCH  14  16
TORSDOF 3
ENDMDL
