MODEL 1
REMARK VINA RESULT:      -5.6      0.000      0.000
REMARK  3 active torsions:
REMARK  status: ('A' for Active; 'I' for Inactive)
REMARK    1  A    between atoms: C2_3  and  N2_9 
REMARK    2  A    between atoms: N2_9  and  C8_10 
REMARK    3  A    between atoms: C8_10  and  C9_11 
ROOT
ATOM      1  N1   11 d          13.193  43.577  23.718  0.00  0.00    -0.069 N 
ATOM      2  C1   11 d          13.004  42.250  24.427  0.00  0.00     0.268 C 
ATOM      3  C2   11 d          14.035  42.060  25.601  0.00  0.00     0.215 C 
ATOM      4  C3   11 d          14.824  43.404  25.752  0.00  0.00     0.021 C 
ATOM      5  C4   11 d          13.846  44.595  25.928  0.00  0.00     0.034 C 
ATOM      6  C5   11 d          12.909  44.693  24.693  0.00  0.00     0.235 C 
ATOM      7  C6   11 d          15.608  43.649  24.435  0.00  0.00     0.034 C 
ATOM      8  C7   11 d          14.620  43.693  23.237  0.00  0.00     0.235 C 
ATOM      9  H1   11 d          12.524  43.651  22.876  0.00  0.00     0.280 HD
ENDROOT
BRANCH   3  10
ATOM     10  N2   11 d          13.412  41.528  26.874  0.00  0.00    -0.067 N 
ATOM     11  H14  11 d          12.704  42.233  27.266  0.00  0.00     0.277 HD
ATOM     12  H15  11 d          12.855  40.638  26.644  0.00  0.00     0.277 HD
BRANCH  10  13
ATOM     13  C8   11 d          14.397  41.176  27.952  0.00  0.00     0.264 C 
BRANCH  13  14
ATOM     14  C9   11 d          14.241  42.096  29.172  0.00  0.00     0.147 C 
ATOM     15  O1   11 d          14.421  41.279  30.352  0.00  0.00    -0.384 OA
ATOM     16  C10  11 d          13.228  41.437  31.159  0.00  0.00     0.168 C 
ATOM     17  C11  11 d          12.120  41.891  30.230  0.00  0.00     0.029 C 
ATOM     18  C12  11 d          12.875  42.778  29.268  0.00  0.00     0.036 C 
ENDBRANCH  13  14
ENDBRANCH  10  13
ENDBRANCH   3  10
TORSDOF 3
ENDMDL
MODEL 2
REMARK VINA RESULT:      -5.6      1.340      2.268
REMARK  3 active torsions:
REMARK  status: ('A' for Active; 'I' for Inactive)
REMARK    1  A    between atoms: C2_3  and  N2_9 
REMARK    2  A    between atoms: N2_9  and  C8_10 
REMARK    3  A    between atoms: C8_10  and  C9_11 
ROOT
ATOM      1  N1   11 d          15.074  42.566  24.203  0.00  0.00    -0.069 N 
ATOM      2  C1   11 d          15.358  43.348  25.471  0.00  0.00     0.268 C 
ATOM      3  C2   11 d          14.183  44.333  25.829  0.00  0.00     0.215 C 
ATOM      4  C3   11 d          13.017  44.054  24.821  0.00  0.00     0.021 C 
ATOM      5  C4   11 d          12.634  42.551  24.832  0.00  0.00     0.034 C 
ATOM      6  C5   11 d          13.866  41.692  24.432  0.00  0.00     0.235 C 
ATOM      7  C6   11 d          13.528  44.385  23.394  0.00  0.00     0.034 C 
ATOM      8  C7   11 d          14.783  43.526  23.074  0.00  0.00     0.235 C 
ATOM      9  H1   11 d          15.922  41.954  23.943  0.00  0.00     0.280 HD
ENDROOT
BRANCH   3  10
ATOM     10  N2   11 d          13.795  44.308  27.292  0.00  0.00    -0.067 N 
ATOM     11  H14  11 d          13.916  45.282  27.727  0.00  0.00     0.277 HD
ATOM     12  H15  11 d          12.749  44.071  27.370  0.00  0.00     0.277 HD
BRANCH  10  13
ATOM     13  C8   11 d          14.547  43.307  28.121  0.00  0.00     0.264 C 
BRANCH  13  14
ATOM     14  C9   11 d          13.590  42.312  28.796  0.00  0.00     0.147 C 
ATOM     15  O1   11 d          14.027  42.159  30.166  0.00  0.00    -0.384 OA
ATOM     16  C10  11 d          14.268  40.745  30.375  0.00  0.00     0.168 C 
ATOM     17  C11  11 d          14.514  40.131  29.012  0.00  0.00     0.029 C 
ATOM     18  C12  11 d          13.569  40.928  28.144  0.00  0.00     0.036 C 
ENDBRANCH  13  14
ENDBRANCH  10  13
ENDBRANCH   3  10
TORSDOF 3
ENDMDL
MODEL 3
REMARK VINA RESULT:      -5.5      2.816      5.917
REMARK  3 active torsions:
REMARK  status: ('A' for Active; 'I' for Inactive)
REMARK    1  A    between atoms: C2_3  and  N2_9 
REMARK    2  A    between atoms: N2_9  and  C8_10 
REMARK    3  A    between atoms: C8_10  and  C9_11 
ROOT
ATOM      1  N1   11 d          14.774  41.233  26.845  0.00  0.00    -0.069 N 
ATOM      2  C1   11 d          13.950  41.917  25.771  0.00  0.00     0.268 C 
ATOM      3  C2   11 d          12.986  43.005  26.376  0.00  0.00     0.215 C 
ATOM      4  C3   11 d          13.323  43.133  27.900  0.00  0.00     0.021 C 
ATOM      5  C4   11 d          14.835  43.416  28.102  0.00  0.00     0.034 C 
ATOM      6  C5   11 d          15.673  42.258  27.493  0.00  0.00     0.235 C 
ATOM      7  C6   11 d          13.021  41.768  28.574  0.00  0.00     0.034 C 
ATOM      8  C7   11 d          13.855  40.650  27.891  0.00  0.00     0.235 C 
ATOM      9  H1   11 d          15.372  40.447  26.414  0.00  0.00     0.280 HD
ENDROOT
BRANCH   3  10
ATOM     10  N2   11 d          12.979  44.306  25.603  0.00  0.00    -0.067 N 
ATOM     11  H14  11 d          12.146  44.914  25.901  0.00  0.00     0.277 HD
ATOM     12  H15  11 d          13.863  44.864  25.853  0.00  0.00     0.277 HD
BRANCH  10  13
ATOM     13  C8   11 d          12.955  44.146  24.110  0.00  0.00     0.264 C 
BRANCH  13  14
ATOM     14  C9   11 d          14.010  45.039  23.437  0.00  0.00     0.147 C 
ATOM     15  O1   11 d          13.478  45.438  22.153  0.00  0.00    -0.384 OA
ATOM     16  C10  11 d          14.440  45.023  21.152  0.00  0.00     0.168 C 
ATOM     17  C11  11 d          15.260  43.905  21.761  0.00  0.00     0.029 C 
ATOM     18  C12  11 d          15.354  44.347  23.202  0.00  0.00     0.036 C 
ENDBRANCH  13  14
ENDBRANCH  10  13
ENDBRANCH   3  10
TORSDOF 3
ENDMDL
MODEL 4
REMARK VINA RESULT:      -5.4      1.616      2.148
REMARK  3 active torsions:
REMARK  status: ('A' for Active; 'I' for Inactive)
REMARK    1  A    between atoms: C2_3  and  N2_9 
REMARK    2  A    between atoms: N2_9  and  C8_10 
REMARK    3  A    between atoms: C8_10  and  C9_11 
ROOT
ATOM      1  N1   11 d          12.441  42.718  25.905  0.00  0.00    -0.069 N 
ATOM      2  C1   11 d          13.629  42.153  26.659  0.00  0.00     0.268 C 
ATOM      3  C2   11 d          14.479  43.285  27.348  0.00  0.00     0.215 C 
ATOM      4  C3   11 d          13.705  44.633  27.156  0.00  0.00     0.021 C 
ATOM      5  C4   11 d          12.248  44.504  27.672  0.00  0.00     0.034 C 
ATOM      6  C5   11 d          11.511  43.380  26.893  0.00  0.00     0.235 C 
ATOM      7  C6   11 d          13.625  44.926  25.634  0.00  0.00     0.034 C 
ATOM      8  C7   11 d          12.918  43.747  24.909  0.00  0.00     0.235 C 
ATOM      9  H1   11 d          11.918  41.931  25.386  0.00  0.00     0.280 HD
ENDROOT
BRANCH   3  10
ATOM     10  N2   11 d          14.875  42.963  28.774  0.00  0.00    -0.067 N 
ATOM     11  H14  11 d          15.942  42.881  28.855  0.00  0.00     0.277 HD
ATOM     12  H15  11 d          14.587  43.782  29.407  0.00  0.00     0.277 HD
BRANCH  10  13
ATOM     13  C8   11 d          14.245  41.719  29.331  0.00  0.00     0.264 C 
BRANCH  13  14
ATOM     14  C9   11 d          13.807  41.923  30.790  0.00  0.00     0.147 C 
ATOM     15  O1   11 d          13.572  40.612  31.354  0.00  0.00    -0.384 OA
ATOM     16  C10  11 d          12.210  40.606  31.850  0.00  0.00     0.168 C 
ATOM     17  C11  11 d          11.461  41.690  31.102  0.00  0.00     0.029 C 
ATOM     18  C12  11 d          12.528  42.747  30.949  0.00  0.00     0.036 C 
ENDBRANCH  13  14
ENDBRANCH  10  13
ENDBRANCH   3  10
TORSDOF 3
ENDMDL
MODEL 5
REMARK VINA RESULT:      -5.3      2.727      5.831
REMARK  3 active torsions:
REMARK  status: ('A' for Active; 'I' for Inactive)
REMARK    1  A    between atoms: C2_3  and  N2_9 
REMARK    2  A    between atoms: N2_9  and  C8_10 
REMARK    3  A    between atoms: C8_10  and  C9_11 
ROOT
ATOM      1  N1   11 d          13.332  42.699  27.884  0.00  0.00    -0.069 N 
ATOM      2  C1   11 d          13.246  42.052  26.515  0.00  0.00     0.268 C 
ATOM      3  C2   11 d          12.492  42.967  25.479  0.00  0.00     0.215 C 
ATOM      4  C3   11 d          12.218  44.339  26.181  0.00  0.00     0.021 C 
ATOM      5  C4   11 d          13.534  44.937  26.744  0.00  0.00     0.034 C 
ATOM      6  C5   11 d          14.159  43.957  27.774  0.00  0.00     0.235 C 
ATOM      7  C6   11 d          11.282  44.080  27.391  0.00  0.00     0.034 C 
ATOM      8  C7   11 d          11.944  43.061  28.358  0.00  0.00     0.235 C 
ATOM      9  H1   11 d          13.788  42.025  28.590  0.00  0.00     0.280 HD
ENDROOT
BRANCH   3  10
ATOM     10  N2   11 d          13.181  43.053  24.134  0.00  0.00    -0.067 N 
ATOM     11  H14  11 d          12.929  42.203  23.530  0.00  0.00     0.277 HD
ATOM     12  H15  11 d          12.811  43.916  23.609  0.00  0.00     0.277 HD
BRANCH  10  13
ATOM     13  C8   11 d          14.676  43.176  24.204  0.00  0.00     0.264 C 
BRANCH  13  14
ATOM     14  C9   11 d          15.178  44.362  23.366  0.00  0.00     0.147 C 
ATOM     15  O1   11 d          14.025  45.166  23.026  0.00  0.00    -0.384 OA
ATOM     16  C10  11 d          13.996  45.268  21.581  0.00  0.00     0.168 C 
ATOM     17  C11  11 d          14.783  44.093  21.037  0.00  0.00     0.029 C 
ATOM     18  C12  11 d          15.878  43.957  22.068  0.00  0.00     0.036 C 
ENDBRANCH  13  14
ENDBRANCH  10  13
ENDBRANCH   3  10
TORSDOF 3
ENDMDL
MODEL 6
REMARK VINA RESULT:      -5.2      5.292      6.898
REMARK  3 active torsions:
REMARK  status: ('A' for Active; 'I' for Inactive)
REMARK    1  A    between atoms: C2_3  and  N2_9 
REMARK    2  A    between atoms: N2_9  and  C8_10 
REMARK    3  A    between atoms: C8_10  and  C9_11 
ROOT
ATOM      1  N1   11 d           6.912  47.598  27.075  0.00  0.00    -0.069 N 
ATOM      2  C1   11 d           8.085  46.982  26.339  0.00  0.00     0.268 C 
ATOM      3  C2   11 d           9.109  46.307  27.326  0.00  0.00     0.215 C 
ATOM      4  C3   11 d           8.478  46.355  28.758  0.00  0.00     0.021 C 
ATOM      5  C4   11 d           7.061  45.724  28.753  0.00  0.00     0.034 C 
ATOM      6  C5   11 d           6.143  46.499  27.768  0.00  0.00     0.235 C 
ATOM      7  C6   11 d           8.311  47.846  29.157  0.00  0.00     0.034 C 
ATOM      8  C7   11 d           7.421  48.572  28.111  0.00  0.00     0.235 C 
ATOM      9  H1   11 d           6.265  48.114  26.385  0.00  0.00     0.280 HD
ENDROOT
BRANCH   3  10
ATOM     10  N2   11 d           9.578  44.941  26.871  0.00  0.00    -0.067 N 
ATOM     11  H14  11 d           8.925  44.177  27.249  0.00  0.00     0.277 HD
ATOM     12  H15  11 d           9.512  44.890  25.799  0.00  0.00     0.277 HD
BRANCH  10  13
ATOM     13  C8   11 d          10.992  44.607  27.252  0.00  0.00     0.264 C 
BRANCH  13  14
ATOM     14  C9   11 d          11.743  43.949  26.084  0.00  0.00     0.147 C 
ATOM     15  O1   11 d          12.967  43.395  26.618  0.00  0.00    -0.384 OA
ATOM     16  C10  11 d          14.057  43.978  25.863  0.00  0.00     0.168 C 
ATOM     17  C11  11 d          13.543  45.273  25.268  0.00  0.00     0.029 C 
ATOM     18  C12  11 d          12.109  44.915  24.955  0.00  0.00     0.036 C 
ENDBRANCH  13  14
ENDBRANCH  10  13
ENDBRANCH   3  10
TORSDOF 3
ENDMDL
MODEL 7
REMARK VINA RESULT:      -5.1      4.481      5.465
REMARK  3 active torsions:
REMARK  status: ('A' for Active; 'I' for Inactive)
REMARK    1  A    between atoms: C2_3  and  N2_9 
REMARK    2  A    between atoms: N2_9  and  C8_10 
REMARK    3  A    between atoms: C8_10  and  C9_11 
ROOT
ATOM      1  N1   11 d          12.521  42.861  25.389  0.00  0.00    -0.069 N 
ATOM      2  C1   11 d          11.304  43.098  26.261  0.00  0.00     0.268 C 
ATOM      3  C2   11 d          11.616  44.082  27.450  0.00  0.00     0.215 C 
ATOM      4  C3   11 d          13.069  44.627  27.236  0.00  0.00     0.021 C 
ATOM      5  C4   11 d          13.218  45.244  25.821  0.00  0.00     0.034 C 
ATOM      6  C5   11 d          12.916  44.166  24.743  0.00  0.00     0.235 C 
ATOM      7  C6   11 d          14.046  43.424  27.315  0.00  0.00     0.034 C 
ATOM      8  C7   11 d          13.665  42.367  26.243  0.00  0.00     0.235 C 
ATOM      9  H1   11 d          12.300  42.131  24.627  0.00  0.00     0.280 HD
ENDROOT
BRANCH   3  10
ATOM     10  N2   11 d          10.552  45.139  27.657  0.00  0.00    -0.067 N 
ATOM     11  H14  11 d           9.938  44.891  28.501  0.00  0.00     0.277 HD
ATOM     12  H15  11 d          11.031  46.072  27.896  0.00  0.00     0.277 HD
BRANCH  10  13
ATOM     13  C8   11 d           9.670  45.380  26.465  0.00  0.00     0.264 C 
BRANCH  13  14
ATOM     14  C9   11 d           8.323  45.990  26.884  0.00  0.00     0.147 C 
ATOM     15  O1   11 d           8.101  47.151  26.051  0.00  0.00    -0.384 OA
ATOM     16  C10  11 d           7.910  48.277  26.943  0.00  0.00     0.168 C 
ATOM     17  C11  11 d           8.558  47.913  28.263  0.00  0.00     0.029 C 
ATOM     18  C12  11 d           8.267  46.433  28.347  0.00  0.00     0.036 C 
ENDBRANCH  13  14
ENDBRANCH  10  13
ENDBRANCH   3  10
TORSDOF 3
ENDMDL
MODEL 8
REMARK VINA RESULT:      -4.9      5.140      7.162
REMARK  3 active torsions:
REMARK  status: ('A' for Active; 'I' for Inactive)
REMARK    1  A    between atoms: C2_3  and  N2_9 
REMARK    2  A    between atoms: N2_9  and  C8_10 
REMARK    3  A    between atoms: C8_10  and  C9_11 
ROOT
ATOM      1  N1   11 d           8.727  46.507  29.035  0.00  0.00    -0.069 N 
ATOM      2  C1   11 d           9.547  45.643  28.097  0.00  0.00     0.268 C 
ATOM      3  C2   11 d           8.885  45.530  26.673  0.00  0.00     0.215 C 
ATOM      4  C3   11 d           7.656  46.501  26.651  0.00  0.00     0.021 C 
ATOM      5  C4   11 d           8.085  47.934  27.060  0.00  0.00     0.034 C 
ATOM      6  C5   11 d           8.690  47.914  28.491  0.00  0.00     0.235 C 
ATOM      7  C6   11 d           6.639  46.008  27.715  0.00  0.00     0.034 C 
ATOM      8  C7   11 d           7.318  45.970  29.112  0.00  0.00     0.235 C 
ATOM      9  H1   11 d           9.164  46.510  30.020  0.00  0.00     0.280 HD
ENDROOT
BRANCH   3  10
ATOM     10  N2   11 d           9.865  45.702  25.533  0.00  0.00    -0.067 N 
ATOM     11  H14  11 d           9.375  45.546  24.591  0.00  0.00     0.277 HD
ATOM     12  H15  11 d          10.215  46.719  25.525  0.00  0.00     0.277 HD
BRANCH  10  13
ATOM     13  C8   11 d          11.072  44.812  25.607  0.00  0.00     0.264 C 
BRANCH  13  14
ATOM     14  C9   11 d          12.316  45.510  25.034  0.00  0.00     0.147 C 
ATOM     15  O1   11 d          12.269  45.358  23.597  0.00  0.00    -0.384 OA
ATOM     16  C10  11 d          13.507  44.716  23.201  0.00  0.00     0.168 C 
ATOM     17  C11  11 d          14.039  43.990  24.420  0.00  0.00     0.029 C 
ATOM     18  C12  11 d          13.641  44.931  25.532  0.00  0.00     0.036 C 
ENDBRANCH  13  14
ENDBRANCH  10  13
ENDBRANCH   3  10
TORSDOF 3
ENDMDL
MODEL 9
REMARK VINA RESULT:      -4.8      1.963      3.135
REMARK  3 active torsions:
REMARK  status: ('A' for Active; 'I' for Inactive)
REMARK    1  A    between atoms: C2_3  and  N2_9 
REMARK    2  A    between atoms: N2_9  and  C8_10 
REMARK    3  A    between atoms: C8_10  and  C9_11 
ROOT
ATOM      1  N1   11 d          15.631  45.174  23.596  0.00  0.00    -0.069 N 
ATOM      2  C1   11 d          14.327  45.693  24.170  0.00  0.00     0.268 C 
ATOM      3  C2   11 d          13.103  44.798  23.747  0.00  0.00     0.215 C 
ATOM      4  C3   11 d          13.674  43.552  22.990  0.00  0.00     0.021 C 
ATOM      5  C4   11 d          14.742  42.831  23.854  0.00  0.00     0.034 C 
ATOM      6  C5   11 d          15.906  43.808  24.175  0.00  0.00     0.235 C 
ATOM      7  C6   11 d          14.390  44.057  21.709  0.00  0.00     0.034 C 
ATOM      8  C7   11 d          15.511  45.060  22.095  0.00  0.00     0.235 C 
ATOM      9  H1   11 d          16.441  45.842  23.841  0.00  0.00     0.280 HD
ENDROOT
BRANCH   3  10
ATOM     10  N2   11 d          12.157  44.486  24.887  0.00  0.00    -0.067 N 
ATOM     11  H14  11 d          11.329  45.169  24.883  0.00  0.00     0.277 HD
ATOM     12  H15  11 d          11.741  43.507  24.735  0.00  0.00     0.277 HD
BRANCH  10  13
ATOM     13  C8   11 d          12.793  44.499  26.248  0.00  0.00     0.264 C 
BRANCH  13  14
ATOM     14  C9   11 d          12.670  43.130  26.933  0.00  0.00     0.147 C 
ATOM     15  O1   11 d          11.932  43.329  28.161  0.00  0.00    -0.384 OA
ATOM     16  C10  11 d          12.765  42.831  29.237  0.00  0.00     0.168 C 
ATOM     17  C11  11 d          14.195  42.848  28.736  0.00  0.00     0.029 C 
ATOM     18  C12  11 d          14.012  42.484  27.282  0.00  0.00     0.036 C 
ENDBRANCH  13  14
ENDBRANCH  10  13
ENDBRANCH   3  10
TORSDOF 3
ENDMDL
MODEL 10
REMARK VINA RESULT:      -4.7      8.539     10.267
REMARK  3 active torsions:
REMARK  status: ('A' for Active; 'I' for Inactive)
REMARK    1  A    between atoms: C2_3  and  N2_9 
REMARK    2  A    between atoms: N2_9  and  C8_10 
REMARK    3  A    between atoms: C8_10  and  C9_11 
ROOT
ATOM      1  N1   11 d           8.800  46.499  29.009  0.00  0.00    -0.069 N 
ATOM      2  C1   11 d           8.541  47.940  28.617  0.00  0.00     0.268 C 
ATOM      3  C2   11 d           7.696  48.046  27.293  0.00  0.00     0.215 C 
ATOM      4  C3   11 d           7.257  46.595  26.902  0.00  0.00     0.021 C 
ATOM      5  C4   11 d           6.532  45.905  28.086  0.00  0.00     0.034 C 
ATOM      6  C5   11 d           7.480  45.834  29.315  0.00  0.00     0.235 C 
ATOM      7  C6   11 d           8.539  45.770  26.610  0.00  0.00     0.034 C 
ATOM      8  C7   11 d           9.462  45.775  27.860  0.00  0.00     0.235 C 
ATOM      9  H1   11 d           9.439  46.455  29.876  0.00  0.00     0.280 HD
ENDROOT
BRANCH   3  10
ATOM     10  N2   11 d           6.576  49.063  27.368  0.00  0.00    -0.067 N 
ATOM     11  H14  11 d           6.318  49.407  26.385  0.00  0.00     0.277 HD
ATOM     12  H15  11 d           5.697  48.583  27.760  0.00  0.00     0.277 HD
BRANCH  10  13
ATOM     13  C8   11 d           6.868  50.250  28.241  0.00  0.00     0.264 C 
BRANCH  13  14
ATOM     14  C9   11 d           7.190  51.494  27.398  0.00  0.00     0.147 C 
ATOM     15  O1   11 d           6.493  52.610  27.997  0.00  0.00    -0.384 OA
ATOM     16  C10  11 d           5.656  53.186  26.964  0.00  0.00     0.168 C 
ATOM     17  C11  11 d           5.426  52.107  25.926  0.00  0.00     0.029 C 
ATOM     18  C12  11 d           6.754  51.388  25.936  0.00  0.00     0.036 C 
ENDBRANCH  13  14
ENDBRANCH  10  13
ENDBRANCH   3  10
TORSDOF 3
ENDMDL
