MODEL 1
REMARK VINA RESULT:      -9.7      0.000      0.000
REMARK  3 active torsions:
REMARK  status: ('A' for Active; 'I' for Inactive)
REMARK    1  A    between atoms: C7_7  and  N3_11 
REMARK    2  A    between atoms: N3_11  and  C9_12 
REMARK    3  A    between atoms: C9_12  and  C10_13 
ROOT
ATOM      1  C1   11 d         -12.801 206.353 116.244  0.00  0.00     0.134 A 
ATOM      2  C2   11 d         -13.637 205.879 115.193  0.00  0.00    -0.005 A 
ATOM      3  C3   11 d         -13.306 206.119 113.860  0.00  0.00    -0.033 A 
ATOM      4  C4   11 d         -12.152 206.854 113.570  0.00  0.00     0.037 A 
ATOM      5  C5   11 d         -11.610 207.279 112.355  0.00  0.00     0.092 A 
ATOM      6  C6   11 d         -10.443 207.998 112.593  0.00  0.00     0.082 A 
ATOM      7  C7   11 d          -9.719 208.540 111.515  0.00  0.00     0.144 A 
ATOM      8  N1   11 d         -10.216 208.306 110.257  0.00  0.00    -0.223 NA
ATOM      9  C8   11 d         -11.363 207.585 110.040  0.00  0.00     0.236 A 
ATOM     10  N2   11 d         -12.066 207.070 111.092  0.00  0.00    -0.240 NA
ATOM     11  S1   11 d         -10.179 208.063 114.075  0.00  0.00    -0.063 SA
ATOM     12  C14  11 d         -11.347 207.291 114.617  0.00  0.00     0.114 A 
ATOM     13  N4   11 d         -11.654 207.040 115.919  0.00  0.00    -0.223 NA
ATOM     14  C15  11 d         -14.419 205.753 112.943  0.00  0.00     0.040 C 
ATOM     15  C16  11 d         -15.609 205.699 113.906  0.00  0.00     0.009 C 
ATOM     16  C17  11 d         -15.029 205.349 115.282  0.00  0.00     0.043 C 
ATOM     17  N5   11 d         -13.097 206.188 117.594  0.00  0.00    -0.361 N 
ATOM     18  C18  11 d         -13.071 207.310 118.470  0.00  0.00     0.150 C 
ATOM     19  C19  11 d         -14.339 207.356 119.334  0.00  0.00     0.187 C 
ATOM     20  O2   11 d         -14.563 206.081 119.999  0.00  0.00    -0.388 OA
ATOM     21  C20  11 d         -14.691 205.010 119.021  0.00  0.00     0.187 C 
ATOM     22  C21  11 d         -13.435 204.916 118.141  0.00  0.00     0.150 C 
ENDROOT
BRANCH   7  23
ATOM     23  N3   11 d          -8.568 209.300 111.692  0.00  0.00    -0.367 N 
ATOM     24  H2   11 d          -8.626 210.280 111.556  0.00  0.00     0.161 HD
BRANCH  23  25
ATOM     25  C9   11 d          -7.329 208.706 112.054  0.00  0.00     0.186 C 
BRANCH  25  26
ATOM     26  C10  11 d          -6.604 209.307 113.234  0.00  0.00     0.070 A 
ATOM     27  O1   11 d          -7.233 210.068 114.099  0.00  0.00    -0.325 OA
ATOM     28  C11  11 d          -6.368 210.438 115.010  0.00  0.00     0.142 A 
ATOM     29  C12  11 d          -5.117 209.912 114.748  0.00  0.00     0.027 A 
ATOM     30  C13  11 d          -5.265 209.175 113.591  0.00  0.00     0.036 A 
ENDBRANCH  25  26
ENDBRANCH  23  25
ENDBRANCH   7  23
TORSDOF 3
ENDMDL
MODEL 2
REMARK VINA RESULT:      -9.4      2.109      8.101
REMARK  3 active torsions:
REMARK  status: ('A' for Active; 'I' for Inactive)
REMARK    1  A    between atoms: C7_7  and  N3_11 
REMARK    2  A    between atoms: N3_11  and  C9_12 
REMARK    3  A    between atoms: C9_12  and  C10_13 
ROOT
ATOM      1  C1   11 d          -8.184 208.990 115.167  0.00  0.00     0.134 A 
ATOM      2  C2   11 d          -8.692 208.968 113.836  0.00  0.00    -0.005 A 
ATOM      3  C3   11 d         -10.007 208.577 113.585  0.00  0.00    -0.033 A 
ATOM      4  C4   11 d         -10.813 208.183 114.658  0.00  0.00     0.037 A 
ATOM      5  C5   11 d         -12.125 207.706 114.700  0.00  0.00     0.092 A 
ATOM      6  C6   11 d         -12.480 207.436 116.018  0.00  0.00     0.082 A 
ATOM      7  C7   11 d         -13.760 206.933 116.312  0.00  0.00     0.144 A 
ATOM      8  N1   11 d         -14.611 206.748 115.250  0.00  0.00    -0.223 NA
ATOM      9  C8   11 d         -14.248 207.030 113.957  0.00  0.00     0.236 A 
ATOM     10  N2   11 d         -12.999 207.509 113.678  0.00  0.00    -0.240 NA
ATOM     11  S1   11 d         -11.324 207.753 116.930  0.00  0.00    -0.063 SA
ATOM     12  C14  11 d         -10.293 208.229 115.948  0.00  0.00     0.114 A 
ATOM     13  N4   11 d          -9.018 208.631 116.200  0.00  0.00    -0.223 NA
ATOM     14  C15  11 d         -10.259 208.398 112.130  0.00  0.00     0.040 C 
ATOM     15  C16  11 d          -8.833 208.282 111.580  0.00  0.00     0.009 C 
ATOM     16  C17  11 d          -7.938 209.060 112.552  0.00  0.00     0.043 C 
ATOM     17  N5   11 d          -6.870 209.326 115.480  0.00  0.00    -0.361 N 
ATOM     18  C18  11 d          -6.094 208.464 116.306  0.00  0.00     0.150 C 
ATOM     19  C19  11 d          -4.713 208.212 115.685  0.00  0.00     0.187 C 
ATOM     20  O2   11 d          -4.058 209.466 115.344  0.00  0.00    -0.388 OA
ATOM     21  C20  11 d          -4.871 210.229 114.407  0.00  0.00     0.187 C 
ATOM     22  C21  11 d          -6.261 210.519 114.994  0.00  0.00     0.150 C 
ENDROOT
BRANCH   7  23
ATOM     23  N3   11 d         -14.159 206.608 117.604  0.00  0.00    -0.367 N 
ATOM     24  H2   11 d         -14.741 207.247 118.091  0.00  0.00     0.161 HD
BRANCH  23  25
ATOM     25  C9   11 d         -13.751 205.400 118.231  0.00  0.00     0.186 C 
BRANCH  25  26
ATOM     26  C10  11 d         -14.716 204.240 118.169  0.00  0.00     0.070 A 
ATOM     27  O1   11 d         -15.296 203.784 119.255  0.00  0.00    -0.325 OA
ATOM     28  C11  11 d         -16.078 202.793 118.905  0.00  0.00     0.142 A 
ATOM     29  C12  11 d         -16.019 202.573 117.541  0.00  0.00     0.027 A 
ATOM     30  C13  11 d         -15.132 203.513 117.057  0.00  0.00     0.036 A 
ENDBRANCH  25  26
ENDBRANCH  23  25
ENDBRANCH   7  23
TORSDOF 3
ENDMDL
MODEL 3
REMARK VINA RESULT:      -8.9      2.799      5.143
REMARK  3 active torsions:
REMARK  status: ('A' for Active; 'I' for Inactive)
REMARK    1  A    between atoms: C7_7  and  N3_11 
REMARK    2  A    between atoms: N3_11  and  C9_12 
REMARK    3  A    between atoms: C9_12  and  C10_13 
ROOT
ATOM      1  C1   11 d         -13.561 206.798 114.324  0.00  0.00     0.134 A 
ATOM      2  C2   11 d         -13.962 206.117 115.510  0.00  0.00    -0.005 A 
ATOM      3  C3   11 d         -13.166 206.157 116.654  0.00  0.00    -0.033 A 
ATOM      4  C4   11 d         -11.955 206.855 116.613  0.00  0.00     0.037 A 
ATOM      5  C5   11 d         -10.952 207.021 117.571  0.00  0.00     0.092 A 
ATOM      6  C6   11 d          -9.928 207.800 117.044  0.00  0.00     0.082 A 
ATOM      7  C7   11 d          -8.796 208.097 117.825  0.00  0.00     0.144 A 
ATOM      8  N1   11 d          -8.780 207.598 119.104  0.00  0.00    -0.223 NA
ATOM      9  C8   11 d          -9.804 206.840 119.612  0.00  0.00     0.236 A 
ATOM     10  N2   11 d         -10.895 206.546 118.844  0.00  0.00    -0.240 NA
ATOM     11  S1   11 d         -10.263 208.187 115.626  0.00  0.00    -0.063 SA
ATOM     12  C14  11 d         -11.597 207.522 115.446  0.00  0.00     0.114 A 
ATOM     13  N4   11 d         -12.381 207.505 114.334  0.00  0.00    -0.223 NA
ATOM     14  C15  11 d         -13.641 205.198 117.688  0.00  0.00     0.040 C 
ATOM     15  C16  11 d         -14.528 204.263 116.859  0.00  0.00     0.009 C 
ATOM     16  C17  11 d         -15.036 205.096 115.676  0.00  0.00     0.043 C 
ATOM     17  N5   11 d         -14.285 206.761 113.137  0.00  0.00    -0.361 N 
ATOM     18  C18  11 d         -13.634 206.420 111.917  0.00  0.00     0.150 C 
ATOM     19  C19  11 d         -14.437 205.362 111.148  0.00  0.00     0.187 C 
ATOM     20  O2   11 d         -15.825 205.771 110.992  0.00  0.00    -0.388 OA
ATOM     21  C20  11 d         -16.443 205.987 112.293  0.00  0.00     0.187 C 
ATOM     22  C21  11 d         -15.679 207.052 113.095  0.00  0.00     0.150 C 
ENDROOT
BRANCH   7  23
ATOM     23  N3   11 d          -7.724 208.838 117.340  0.00  0.00    -0.367 N 
ATOM     24  H2   11 d          -7.779 209.827 117.381  0.00  0.00     0.161 HD
BRANCH  23  25
ATOM     25  C9   11 d          -6.572 208.213 116.790  0.00  0.00     0.186 C 
BRANCH  25  26
ATOM     26  C10  11 d          -6.307 208.443 115.321  0.00  0.00     0.070 A 
ATOM     27  O1   11 d          -7.026 209.295 114.629  0.00  0.00    -0.325 OA
ATOM     28  C11  11 d          -6.574 209.295 113.400  0.00  0.00     0.142 A 
ATOM     29  C12  11 d          -5.520 208.412 113.260  0.00  0.00     0.027 A 
ATOM     30  C13  11 d          -5.342 207.853 114.510  0.00  0.00     0.036 A 
ENDBRANCH  25  26
ENDBRANCH  23  25
ENDBRANCH   7  23
TORSDOF 3
ENDMDL
MODEL 4
REMARK VINA RESULT:      -8.9      3.071      7.758
REMARK  3 active torsions:
REMARK  status: ('A' for Active; 'I' for Inactive)
REMARK    1  A    between atoms: C7_7  and  N3_11 
REMARK    2  A    between atoms: N3_11  and  C9_12 
REMARK    3  A    between atoms: C9_12  and  C10_13 
ROOT
ATOM      1  C1   11 d          -7.041 209.006 116.033  0.00  0.00     0.134 A 
ATOM      2  C2   11 d          -6.501 209.018 114.715  0.00  0.00    -0.005 A 
ATOM      3  C3   11 d          -7.320 208.784 113.611  0.00  0.00    -0.033 A 
ATOM      4  C4   11 d          -8.675 208.512 113.818  0.00  0.00     0.037 A 
ATOM      5  C5   11 d          -9.701 208.198 112.924  0.00  0.00     0.092 A 
ATOM      6  C6   11 d         -10.887 208.000 113.625  0.00  0.00     0.082 A 
ATOM      7  C7   11 d         -12.064 207.662 112.934  0.00  0.00     0.144 A 
ATOM      8  N1   11 d         -11.972 207.560 111.568  0.00  0.00    -0.223 NA
ATOM      9  C8   11 d         -10.797 207.769 110.891  0.00  0.00     0.236 A 
ATOM     10  N2   11 d          -9.655 208.087 111.570  0.00  0.00    -0.240 NA
ATOM     11  S1   11 d         -10.642 208.194 115.099  0.00  0.00    -0.063 SA
ATOM     12  C14  11 d          -9.177 208.522 115.116  0.00  0.00     0.114 A 
ATOM     13  N4   11 d          -8.387 208.772 116.195  0.00  0.00    -0.223 NA
ATOM     14  C15  11 d          -6.525 208.606 112.366  0.00  0.00     0.040 C 
ATOM     15  C16  11 d          -5.131 208.308 112.927  0.00  0.00     0.009 C 
ATOM     16  C17  11 d          -5.069 208.992 114.298  0.00  0.00     0.043 C 
ATOM     17  N5   11 d          -6.272 209.187 117.179  0.00  0.00    -0.361 N 
ATOM     18  C18  11 d          -6.364 208.255 118.251  0.00  0.00     0.150 C 
ATOM     19  C19  11 d          -4.967 207.826 118.720  0.00  0.00     0.187 C 
ATOM     20  O2   11 d          -4.132 208.983 119.003  0.00  0.00    -0.388 OA
ATOM     21  C20  11 d          -4.001 209.819 117.818  0.00  0.00     0.187 C 
ATOM     22  C21  11 d          -5.377 210.287 117.320  0.00  0.00     0.150 C 
ENDROOT
BRANCH   7  23
ATOM     23  N3   11 d         -13.269 207.415 113.583  0.00  0.00    -0.367 N 
ATOM     24  H2   11 d         -13.639 208.122 114.172  0.00  0.00     0.161 HD
BRANCH  23  25
ATOM     25  C9   11 d         -13.965 206.186 113.425  0.00  0.00     0.186 C 
BRANCH  25  26
ATOM     26  C10  11 d         -15.248 206.227 112.630  0.00  0.00     0.070 A 
ATOM     27  O1   11 d         -16.346 205.673 113.089  0.00  0.00    -0.325 OA
ATOM     28  C11  11 d         -17.292 205.867 112.203  0.00  0.00     0.142 A 
ATOM     29  C12  11 d         -16.814 206.570 111.114  0.00  0.00     0.027 A 
ATOM     30  C13  11 d         -15.482 206.806 111.386  0.00  0.00     0.036 A 
ENDBRANCH  25  26
ENDBRANCH  23  25
ENDBRANCH   7  23
TORSDOF 3
ENDMDL
MODEL 5
REMARK VINA RESULT:      -8.7      3.591      8.430
REMARK  3 active torsions:
REMARK  status: ('A' for Active; 'I' for Inactive)
REMARK    1  A    between atoms: C7_7  and  N3_11 
REMARK    2  A    between atoms: N3_11  and  C9_12 
REMARK    3  A    between atoms: C9_12  and  C10_13 
ROOT
ATOM      1  C1   11 d         -13.583 206.118 113.496  0.00  0.00     0.134 A 
ATOM      2  C2   11 d         -12.274 206.681 113.488  0.00  0.00    -0.005 A 
ATOM      3  C3   11 d         -11.536 206.777 114.668  0.00  0.00    -0.033 A 
ATOM      4  C4   11 d         -12.109 206.335 115.864  0.00  0.00     0.037 A 
ATOM      5  C5   11 d         -11.633 206.351 117.176  0.00  0.00     0.092 A 
ATOM      6  C6   11 d         -12.588 205.801 118.025  0.00  0.00     0.082 A 
ATOM      7  C7   11 d         -12.338 205.719 119.407  0.00  0.00     0.144 A 
ATOM      8  N1   11 d         -11.123 206.186 119.844  0.00  0.00    -0.223 NA
ATOM      9  C8   11 d         -10.187 206.715 118.991  0.00  0.00     0.236 A 
ATOM     10  N2   11 d         -10.442 206.802 117.651  0.00  0.00    -0.240 NA
ATOM     11  S1   11 d         -13.797 205.384 117.227  0.00  0.00    -0.063 SA
ATOM     12  C14  11 d         -13.382 205.775 115.838  0.00  0.00     0.114 A 
ATOM     13  N4   11 d         -14.098 205.658 114.686  0.00  0.00    -0.223 NA
ATOM     14  C15  11 d         -10.311 207.602 114.483  0.00  0.00     0.040 C 
ATOM     15  C16  11 d         -10.639 208.359 113.192  0.00  0.00     0.009 C 
ATOM     16  C17  11 d         -11.608 207.466 112.408  0.00  0.00     0.043 C 
ATOM     17  N5   11 d         -14.389 206.035 112.365  0.00  0.00    -0.361 N 
ATOM     18  C18  11 d         -15.726 206.522 112.407  0.00  0.00     0.150 C 
ATOM     19  C19  11 d         -16.018 207.415 111.194  0.00  0.00     0.187 C 
ATOM     20  O2   11 d         -15.665 206.742 109.953  0.00  0.00    -0.388 OA
ATOM     21  C20  11 d         -14.254 206.382 109.951  0.00  0.00     0.187 C 
ATOM     22  C21  11 d         -13.917 205.473 111.143  0.00  0.00     0.150 C 
ENDROOT
BRANCH   7  23
ATOM     23  N3   11 d         -13.269 205.215 120.309  0.00  0.00    -0.367 N 
ATOM     24  H2   11 d         -13.176 204.273 120.603  0.00  0.00     0.161 HD
BRANCH  23  25
ATOM     25  C9   11 d         -14.336 206.012 120.804  0.00  0.00     0.186 C 
BRANCH  25  26
ATOM     26  C10  11 d         -15.706 205.378 120.828  0.00  0.00     0.070 A 
ATOM     27  O1   11 d         -16.757 206.053 121.231  0.00  0.00    -0.325 OA
ATOM     28  C11  11 d         -17.799 205.263 121.140  0.00  0.00     0.142 A 
ATOM     29  C12  11 d         -17.436 204.018 120.663  0.00  0.00     0.027 A 
ATOM     30  C13  11 d         -16.073 204.087 120.460  0.00  0.00     0.036 A 
ENDBRANCH  25  26
ENDBRANCH  23  25
ENDBRANCH   7  23
TORSDOF 3
ENDMDL
MODEL 6
REMARK VINA RESULT:      -8.7      2.225      7.249
REMARK  3 active torsions:
REMARK  status: ('A' for Active; 'I' for Inactive)
REMARK    1  A    between atoms: C7_7  and  N3_11 
REMARK    2  A    between atoms: N3_11  and  C9_12 
REMARK    3  A    between atoms: C9_12  and  C10_13 
ROOT
ATOM      1  C1   11 d          -7.683 208.956 115.432  0.00  0.00     0.134 A 
ATOM      2  C2   11 d          -7.338 208.923 114.050  0.00  0.00    -0.005 A 
ATOM      3  C3   11 d          -8.297 208.613 113.087  0.00  0.00    -0.033 A 
ATOM      4  C4   11 d          -9.598 208.310 113.499  0.00  0.00     0.037 A 
ATOM      5  C5   11 d         -10.729 207.925 112.776  0.00  0.00     0.092 A 
ATOM      6  C6   11 d         -11.795 207.725 113.648  0.00  0.00     0.082 A 
ATOM      7  C7   11 d         -13.046 207.320 113.149  0.00  0.00     0.144 A 
ATOM      8  N1   11 d         -13.146 207.157 111.790  0.00  0.00    -0.223 NA
ATOM      9  C8   11 d         -12.088 207.369 110.942  0.00  0.00     0.236 A 
ATOM     10  N2   11 d         -10.873 207.752 111.435  0.00  0.00    -0.240 NA
ATOM     11  S1   11 d         -11.350 207.995 115.062  0.00  0.00    -0.063 SA
ATOM     12  C14  11 d          -9.910 208.366 114.853  0.00  0.00     0.114 A 
ATOM     13  N4   11 d          -8.983 208.690 115.796  0.00  0.00    -0.223 NA
ATOM     14  C15  11 d          -7.682 208.401 111.748  0.00  0.00     0.040 C 
ATOM     15  C16  11 d          -6.213 208.170 112.115  0.00  0.00     0.009 C 
ATOM     16  C17  11 d          -5.980 208.919 113.433  0.00  0.00     0.043 C 
ATOM     17  N5   11 d          -6.766 209.212 116.446  0.00  0.00    -0.361 N 
ATOM     18  C18  11 d          -6.670 208.329 117.558  0.00  0.00     0.150 C 
ATOM     19  C19  11 d          -5.205 207.964 117.839  0.00  0.00     0.187 C 
ATOM     20  O2   11 d          -4.381 209.158 117.949  0.00  0.00    -0.388 OA
ATOM     21  C20  11 d          -4.451 209.941 116.724  0.00  0.00     0.187 C 
ATOM     22  C21  11 d          -5.900 210.344 116.410  0.00  0.00     0.150 C 
ENDROOT
BRANCH   7  23
ATOM     23  N3   11 d         -14.136 207.067 113.975  0.00  0.00    -0.367 N 
ATOM     24  H2   11 d         -14.709 207.831 114.243  0.00  0.00     0.161 HD
BRANCH  23  25
ATOM     25  C9   11 d         -14.435 205.758 114.439  0.00  0.00     0.186 C 
BRANCH  25  26
ATOM     26  C10  11 d         -14.313 205.516 115.925  0.00  0.00     0.070 A 
ATOM     27  O1   11 d         -13.926 206.473 116.736  0.00  0.00    -0.325 OA
ATOM     28  C11  11 d         -13.920 205.987 117.953  0.00  0.00     0.142 A 
ATOM     29  C12  11 d         -14.313 204.662 117.959  0.00  0.00     0.027 A 
ATOM     30  C13  11 d         -14.570 204.350 116.639  0.00  0.00     0.036 A 
ENDBRANCH  25  26
ENDBRANCH  23  25
ENDBRANCH   7  23
TORSDOF 3
ENDMDL
MODEL 7
REMARK VINA RESULT:      -8.5      4.044      9.540
REMARK  3 active torsions:
REMARK  status: ('A' for Active; 'I' for Inactive)
REMARK    1  A    between atoms: C7_7  and  N3_11 
REMARK    2  A    between atoms: N3_11  and  C9_12 
REMARK    3  A    between atoms: C9_12  and  C10_13 
ROOT
ATOM      1  C1   11 d         -13.946 205.902 113.811  0.00  0.00     0.134 A 
ATOM      2  C2   11 d         -12.977 206.695 114.491  0.00  0.00    -0.005 A 
ATOM      3  C3   11 d         -12.825 206.598 115.874  0.00  0.00    -0.033 A 
ATOM      4  C4   11 d         -13.656 205.729 116.587  0.00  0.00     0.037 A 
ATOM      5  C5   11 d         -13.760 205.467 117.955  0.00  0.00     0.092 A 
ATOM      6  C6   11 d         -14.755 204.519 118.174  0.00  0.00     0.082 A 
ATOM      7  C7   11 d         -15.051 204.100 119.483  0.00  0.00     0.144 A 
ATOM      8  N1   11 d         -14.308 204.657 120.494  0.00  0.00    -0.223 NA
ATOM      9  C8   11 d         -13.322 205.583 120.260  0.00  0.00     0.236 A 
ATOM     10  N2   11 d         -13.047 205.993 118.986  0.00  0.00    -0.240 NA
ATOM     11  S1   11 d         -15.366 204.113 116.858  0.00  0.00    -0.063 SA
ATOM     12  C14  11 d         -14.582 204.956 115.895  0.00  0.00     0.114 A 
ATOM     13  N4   11 d         -14.719 205.031 114.542  0.00  0.00    -0.223 NA
ATOM     14  C15  11 d         -11.939 207.669 116.405  0.00  0.00     0.040 C 
ATOM     15  C16  11 d         -11.949 208.680 115.254  0.00  0.00     0.009 C 
ATOM     16  C17  11 d         -12.215 207.870 113.979  0.00  0.00     0.043 C 
ATOM     17  N5   11 d         -14.180 205.984 112.442  0.00  0.00    -0.361 N 
ATOM     18  C18  11 d         -15.506 206.161 111.956  0.00  0.00     0.150 C 
ATOM     19  C19  11 d         -15.557 207.285 110.911  0.00  0.00     0.187 C 
ATOM     20  O2   11 d         -14.562 207.076 109.871  0.00  0.00    -0.388 OA
ATOM     21  C20  11 d         -13.226 207.021 110.447  0.00  0.00     0.187 C 
ATOM     22  C21  11 d         -13.122 205.898 111.491  0.00  0.00     0.150 C 
ENDROOT
BRANCH   7  23
ATOM     23  N3   11 d         -16.060 203.186 119.767  0.00  0.00    -0.367 N 
ATOM     24  H2   11 d         -16.198 202.428 119.141  0.00  0.00     0.161 HD
BRANCH  23  25
ATOM     25  C9   11 d         -16.886 203.317 120.916  0.00  0.00     0.186 C 
BRANCH  25  26
ATOM     26  C10  11 d         -18.203 204.032 120.730  0.00  0.00     0.070 A 
ATOM     27  O1   11 d         -18.322 205.311 120.997  0.00  0.00    -0.325 OA
ATOM     28  C11  11 d         -19.558 205.661 120.740  0.00  0.00     0.142 A 
ATOM     29  C12  11 d         -20.294 204.582 120.288  0.00  0.00     0.027 A 
ATOM     30  C13  11 d         -19.416 203.517 120.281  0.00  0.00     0.036 A 
ENDBRANCH  25  26
ENDBRANCH  23  25
ENDBRANCH   7  23
TORSDOF 3
ENDMDL
MODEL 8
REMARK VINA RESULT:      -8.4      3.005      8.193
REMARK  3 active torsions:
REMARK  status: ('A' for Active; 'I' for Inactive)
REMARK    1  A    between atoms: C7_7  and  N3_11 
REMARK    2  A    between atoms: N3_11  and  C9_12 
REMARK    3  A    between atoms: C9_12  and  C10_13 
ROOT
ATOM      1  C1   11 d          -7.956 208.447 115.999  0.00  0.00     0.134 A 
ATOM      2  C2   11 d          -8.060 208.197 117.397  0.00  0.00    -0.005 A 
ATOM      3  C3   11 d          -9.292 207.891 117.975  0.00  0.00    -0.033 A 
ATOM      4  C4   11 d         -10.430 207.857 117.163  0.00  0.00     0.037 A 
ATOM      5  C5   11 d         -11.774 207.632 117.468  0.00  0.00     0.092 A 
ATOM      6  C6   11 d         -12.535 207.713 116.307  0.00  0.00     0.082 A 
ATOM      7  C7   11 d         -13.929 207.530 116.365  0.00  0.00     0.144 A 
ATOM      8  N1   11 d         -14.466 207.258 117.599  0.00  0.00    -0.223 NA
ATOM      9  C8   11 d         -13.699 207.171 118.733  0.00  0.00     0.236 A 
ATOM     10  N2   11 d         -12.347 207.361 118.671  0.00  0.00    -0.240 NA
ATOM     11  S1   11 d         -11.640 208.015 115.133  0.00  0.00    -0.063 SA
ATOM     12  C14  11 d         -10.296 208.090 115.799  0.00  0.00     0.114 A 
ATOM     13  N4   11 d          -9.092 208.367 115.227  0.00  0.00    -0.223 NA
ATOM     14  C15  11 d          -9.220 207.903 119.461  0.00  0.00     0.040 C 
ATOM     15  C16  11 d          -7.930 208.693 119.703  0.00  0.00     0.009 C 
ATOM     16  C17  11 d          -7.053 208.467 118.465  0.00  0.00     0.043 C 
ATOM     17  N5   11 d          -6.768 208.801 115.369  0.00  0.00    -0.361 N 
ATOM     18  C18  11 d          -6.726 209.944 114.521  0.00  0.00     0.150 C 
ATOM     19  C19  11 d          -5.519 210.830 114.861  0.00  0.00     0.187 C 
ATOM     20  O2   11 d          -4.289 210.053 114.880  0.00  0.00    -0.388 OA
ATOM     21  C20  11 d          -4.381 208.976 115.855  0.00  0.00     0.187 C 
ATOM     22  C21  11 d          -5.568 208.052 115.546  0.00  0.00     0.150 C 
ENDROOT
BRANCH   7  23
ATOM     23  N3   11 d         -14.746 207.637 115.245  0.00  0.00    -0.367 N 
ATOM     24  H2   11 d         -15.021 208.542 114.948  0.00  0.00     0.161 HD
BRANCH  23  25
ATOM     25  C9   11 d         -15.190 206.491 114.531  0.00  0.00     0.186 C 
BRANCH  25  26
ATOM     26  C10  11 d         -15.479 206.674 113.060  0.00  0.00     0.070 A 
ATOM     27  O1   11 d         -14.697 207.407 112.303  0.00  0.00    -0.325 OA
ATOM     28  C11  11 d         -15.180 207.381 111.085  0.00  0.00     0.142 A 
ATOM     29  C12  11 d         -16.324 206.609 111.022  0.00  0.00     0.027 A 
ATOM     30  C13  11 d         -16.524 206.146 112.307  0.00  0.00     0.036 A 
ENDBRANCH  25  26
ENDBRANCH  23  25
ENDBRANCH   7  23
TORSDOF 3
ENDMDL
MODEL 9
REMARK VINA RESULT:      -8.4      3.678      8.385
REMARK  3 active torsions:
REMARK  status: ('A' for Active; 'I' for Inactive)
REMARK    1  A    between atoms: C7_7  and  N3_11 
REMARK    2  A    between atoms: N3_11  and  C9_12 
REMARK    3  A    between atoms: C9_12  and  C10_13 
ROOT
ATOM      1  C1   11 d         -13.598 206.135 113.481  0.00  0.00     0.134 A 
ATOM      2  C2   11 d         -12.288 206.695 113.497  0.00  0.00    -0.005 A 
ATOM      3  C3   11 d         -11.565 206.774 114.687  0.00  0.00    -0.033 A 
ATOM      4  C4   11 d         -12.154 206.317 115.869  0.00  0.00     0.037 A 
ATOM      5  C5   11 d         -11.695 206.316 117.188  0.00  0.00     0.092 A 
ATOM      6  C6   11 d         -12.663 205.758 118.018  0.00  0.00     0.082 A 
ATOM      7  C7   11 d         -12.430 205.657 119.401  0.00  0.00     0.144 A 
ATOM      8  N1   11 d         -11.220 206.114 119.860  0.00  0.00    -0.223 NA
ATOM      9  C8   11 d         -10.272 206.652 119.026  0.00  0.00     0.236 A 
ATOM     10  N2   11 d         -10.509 206.757 117.685  0.00  0.00    -0.240 NA
ATOM     11  S1   11 d         -13.862 205.354 117.199  0.00  0.00    -0.063 SA
ATOM     12  C14  11 d         -13.428 205.762 115.820  0.00  0.00     0.114 A 
ATOM     13  N4   11 d         -14.129 205.662 114.658  0.00  0.00    -0.223 NA
ATOM     14  C15  11 d         -10.336 207.598 114.529  0.00  0.00     0.040 C 
ATOM     15  C16  11 d         -10.644 208.373 113.243  0.00  0.00     0.009 C 
ATOM     16  C17  11 d         -11.606 207.492 112.436  0.00  0.00     0.043 C 
ATOM     17  N5   11 d         -14.389 206.069 112.338  0.00  0.00    -0.361 N 
ATOM     18  C18  11 d         -15.725 206.559 112.370  0.00  0.00     0.150 C 
ATOM     19  C19  11 d         -16.000 207.469 111.164  0.00  0.00     0.187 C 
ATOM     20  O2   11 d         -15.632 206.811 109.919  0.00  0.00    -0.388 OA
ATOM     21  C20  11 d         -14.223 206.447 109.931  0.00  0.00     0.187 C 
ATOM     22  C21  11 d         -13.903 205.522 111.115  0.00  0.00     0.150 C 
ENDROOT
BRANCH   7  23
ATOM     23  N3   11 d         -13.374 205.144 120.284  0.00  0.00    -0.367 N 
ATOM     24  H2   11 d         -14.128 204.617 119.913  0.00  0.00     0.161 HD
BRANCH  23  25
ATOM     25  C9   11 d         -13.283 205.361 121.686  0.00  0.00     0.186 C 
BRANCH  25  26
ATOM     26  C10  11 d         -13.179 204.135 122.561  0.00  0.00     0.070 A 
ATOM     27  O1   11 d         -12.014 203.700 122.981  0.00  0.00    -0.325 OA
ATOM     28  C11  11 d         -12.226 202.638 123.719  0.00  0.00     0.142 A 
ATOM     29  C12  11 d         -13.576 202.348 123.794  0.00  0.00     0.027 A 
ATOM     30  C13  11 d         -14.201 203.320 123.040  0.00  0.00     0.036 A 
ENDBRANCH  25  26
ENDBRANCH  23  25
ENDBRANCH   7  23
TORSDOF 3
ENDMDL
MODEL 10
REMARK VINA RESULT:      -8.3      3.165      4.962
REMARK  3 active torsions:
REMARK  status: ('A' for Active; 'I' for Inactive)
REMARK    1  A    between atoms: C7_7  and  N3_11 
REMARK    2  A    between atoms: N3_11  and  C9_12 
REMARK    3  A    between atoms: C9_12  and  C10_13 
ROOT
ATOM      1  C1   11 d         -12.932 206.642 112.764  0.00  0.00     0.134 A 
ATOM      2  C2   11 d         -12.260 206.891 111.533  0.00  0.00    -0.005 A 
ATOM      3  C3   11 d         -10.983 207.450 111.522  0.00  0.00    -0.033 A 
ATOM      4  C4   11 d         -10.380 207.786 112.738  0.00  0.00     0.037 A 
ATOM      5  C5   11 d          -9.155 208.391 113.025  0.00  0.00     0.092 A 
ATOM      6  C6   11 d          -9.011 208.524 114.402  0.00  0.00     0.082 A 
ATOM      7  C7   11 d          -7.853 209.119 114.935  0.00  0.00     0.144 A 
ATOM      8  N1   11 d          -6.900 209.530 114.036  0.00  0.00    -0.223 NA
ATOM      9  C8   11 d          -7.052 209.381 112.681  0.00  0.00     0.236 A 
ATOM     10  N2   11 d          -8.185 208.811 112.170  0.00  0.00    -0.240 NA
ATOM     11  S1   11 d         -10.229 207.970 115.095  0.00  0.00    -0.063 SA
ATOM     12  C14  11 d         -11.055 207.518 113.925  0.00  0.00     0.114 A 
ATOM     13  N4   11 d         -12.292 206.952 113.941  0.00  0.00    -0.223 NA
ATOM     14  C15  11 d         -10.566 207.842 110.149  0.00  0.00     0.040 C 
ATOM     15  C16  11 d         -11.910 207.875 109.414  0.00  0.00     0.009 C 
ATOM     16  C17  11 d         -12.822 206.886 110.151  0.00  0.00     0.043 C 
ATOM     17  N5   11 d         -14.224 206.130 112.843  0.00  0.00    -0.361 N 
ATOM     18  C18  11 d         -15.203 206.789 113.639  0.00  0.00     0.150 C 
ATOM     19  C19  11 d         -16.510 206.970 112.856  0.00  0.00     0.187 C 
ATOM     20  O2   11 d         -16.954 205.709 112.283  0.00  0.00    -0.388 OA
ATOM     21  C20  11 d         -15.937 205.165 111.395  0.00  0.00     0.187 C 
ATOM     22  C21  11 d         -14.611 204.952 112.141  0.00  0.00     0.150 C 
ENDROOT
BRANCH   7  23
ATOM     23  N3   11 d          -7.671 209.315 116.300  0.00  0.00    -0.367 N 
ATOM     24  H2   11 d          -8.017 210.151 116.705  0.00  0.00     0.161 HD
BRANCH  23  25
ATOM     25  C9   11 d          -7.006 208.355 117.110  0.00  0.00     0.186 C 
BRANCH  25  26
ATOM     26  C10  11 d          -6.507 208.827 118.455  0.00  0.00     0.070 A 
ATOM     27  O1   11 d          -5.720 209.873 118.555  0.00  0.00    -0.325 OA
ATOM     28  C11  11 d          -5.455 210.054 119.825  0.00  0.00     0.142 A 
ATOM     29  C12  11 d          -6.081 209.098 120.603  0.00  0.00     0.027 A 
ATOM     30  C13  11 d          -6.767 208.295 119.714  0.00  0.00     0.036 A 
ENDBRANCH  25  26
ENDBRANCH  23  25
ENDBRANCH   7  23
TORSDOF 3
ENDMDL
MODEL 11
REMARK VINA RESULT:      -8.0      4.117      7.326
REMARK  3 active torsions:
REMARK  status: ('A' for Active; 'I' for Inactive)
REMARK    1  A    between atoms: C7_7  and  N3_11 
REMARK    2  A    between atoms: N3_11  and  C9_12 
REMARK    3  A    between atoms: C9_12  and  C10_13 
ROOT
ATOM      1  C1   11 d          -9.203 207.279 119.737  0.00  0.00     0.134 A 
ATOM      2  C2   11 d          -8.314 207.793 118.750  0.00  0.00    -0.005 A 
ATOM      3  C3   11 d          -8.761 208.044 117.453  0.00  0.00    -0.033 A 
ATOM      4  C4   11 d         -10.092 207.761 117.129  0.00  0.00     0.037 A 
ATOM      5  C5   11 d         -10.790 207.864 115.924  0.00  0.00     0.092 A 
ATOM      6  C6   11 d         -12.104 207.448 116.110  0.00  0.00     0.082 A 
ATOM      7  C7   11 d         -13.004 207.453 115.029  0.00  0.00     0.144 A 
ATOM      8  N1   11 d         -12.518 207.897 113.823  0.00  0.00    -0.223 NA
ATOM      9  C8   11 d         -11.222 208.314 113.660  0.00  0.00     0.236 A 
ATOM     10  N2   11 d         -10.351 208.296 114.713  0.00  0.00    -0.240 NA
ATOM     11  S1   11 d         -12.307 207.034 117.545  0.00  0.00    -0.063 SA
ATOM     12  C14  11 d         -10.941 207.275 118.118  0.00  0.00     0.114 A 
ATOM     13  N4   11 d         -10.514 207.049 119.391  0.00  0.00    -0.223 NA
ATOM     14  C15  11 d          -7.633 208.346 116.532  0.00  0.00     0.040 C 
ATOM     15  C16  11 d          -6.436 207.799 117.317  0.00  0.00     0.009 C 
ATOM     16  C17  11 d          -6.825 207.882 118.798  0.00  0.00     0.043 C 
ATOM     17  N5   11 d          -8.810 206.964 121.034  0.00  0.00    -0.361 N 
ATOM     18  C18  11 d          -9.123 205.688 121.582  0.00  0.00     0.150 C 
ATOM     19  C19  11 d          -7.886 205.058 122.237  0.00  0.00     0.187 C 
ATOM     20  O2   11 d          -7.268 205.978 123.178  0.00  0.00    -0.388 OA
ATOM     21  C20  11 d          -6.878 207.210 122.507  0.00  0.00     0.187 C 
ATOM     22  C21  11 d          -8.089 207.886 121.848  0.00  0.00     0.150 C 
ENDROOT
BRANCH   7  23
ATOM     23  N3   11 d         -14.317 207.013 115.144  0.00  0.00    -0.367 N 
ATOM     24  H2   11 d         -14.947 207.551 115.690  0.00  0.00     0.161 HD
BRANCH  23  25
ATOM     25  C9   11 d         -14.765 205.823 114.509  0.00  0.00     0.186 C 
BRANCH  25  26
ATOM     26  C10  11 d         -15.555 205.987 113.232  0.00  0.00     0.070 A 
ATOM     27  O1   11 d         -16.861 205.862 113.224  0.00  0.00    -0.325 OA
ATOM     28  C11  11 d         -17.274 206.061 111.996  0.00  0.00     0.142 A 
ATOM     29  C12  11 d         -16.212 206.326 111.153  0.00  0.00     0.027 A 
ATOM     30  C13  11 d         -15.088 206.278 111.954  0.00  0.00     0.036 A 
ENDBRANCH  25  26
ENDBRANCH  23  25
ENDBRANCH   7  23
TORSDOF 3
ENDMDL
MODEL 12
REMARK VINA RESULT:      -7.7      3.741      7.837
REMARK  3 active torsions:
REMARK  status: ('A' for Active; 'I' for Inactive)
REMARK    1  A    between atoms: C7_7  and  N3_11 
REMARK    2  A    between atoms: N3_11  and  C9_12 
REMARK    3  A    between atoms: C9_12  and  C10_13 
ROOT
ATOM      1  C1   11 d          -7.024 207.997 118.064  0.00  0.00     0.134 A 
ATOM      2  C2   11 d          -7.450 207.226 119.184  0.00  0.00    -0.005 A 
ATOM      3  C3   11 d          -8.788 206.857 119.324  0.00  0.00    -0.033 A 
ATOM      4  C4   11 d          -9.711 207.277 118.362  0.00  0.00     0.037 A 
ATOM      5  C5   11 d         -11.093 207.102 118.271  0.00  0.00     0.092 A 
ATOM      6  C6   11 d         -11.567 207.724 117.120  0.00  0.00     0.082 A 
ATOM      7  C7   11 d         -12.940 207.691 116.817  0.00  0.00     0.144 A 
ATOM      8  N1   11 d         -13.751 207.015 117.695  0.00  0.00    -0.223 NA
ATOM      9  C8   11 d         -13.266 206.398 118.820  0.00  0.00     0.236 A 
ATOM     10  N2   11 d         -11.932 206.443 119.113  0.00  0.00    -0.240 NA
ATOM     11  S1   11 d         -10.420 208.364 116.381  0.00  0.00    -0.063 SA
ATOM     12  C14  11 d          -9.263 208.016 117.272  0.00  0.00     0.114 A 
ATOM     13  N4   11 d          -7.955 208.359 117.119  0.00  0.00    -0.223 NA
ATOM     14  C15  11 d          -9.057 206.269 120.664  0.00  0.00     0.040 C 
ATOM     15  C16  11 d          -7.841 206.746 121.463  0.00  0.00     0.009 C 
ATOM     16  C17  11 d          -6.709 206.933 120.445  0.00  0.00     0.043 C 
ATOM     17  N5   11 d          -5.716 208.436 117.889  0.00  0.00    -0.361 N 
ATOM     18  C18  11 d          -5.457 209.809 117.615  0.00  0.00     0.150 C 
ATOM     19  C19  11 d          -4.342 210.344 118.525  0.00  0.00     0.187 C 
ATOM     20  O2   11 d          -3.166 209.490 118.466  0.00  0.00    -0.388 OA
ATOM     21  C20  11 d          -3.500 208.132 118.870  0.00  0.00     0.187 C 
ATOM     22  C21  11 d          -4.605 207.548 117.976  0.00  0.00     0.150 C 
ENDROOT
BRANCH   7  23
ATOM     23  N3   11 d         -13.477 208.326 115.703  0.00  0.00    -0.367 N 
ATOM     24  H2   11 d         -13.466 209.318 115.676  0.00  0.00     0.161 HD
BRANCH  23  25
ATOM     25  C9   11 d         -14.036 207.593 114.621  0.00  0.00     0.186 C 
BRANCH  25  26
ATOM     26  C10  11 d         -13.126 207.306 113.450  0.00  0.00     0.070 A 
ATOM     27  O1   11 d         -11.947 207.873 113.355  0.00  0.00    -0.325 OA
ATOM     28  C11  11 d         -11.382 207.439 112.255  0.00  0.00     0.142 A 
ATOM     29  C12  11 d         -12.209 206.554 111.590  0.00  0.00     0.027 A 
ATOM     30  C13  11 d         -13.348 206.464 112.364  0.00  0.00     0.036 A 
ENDBRANCH  25  26
ENDBRANCH  23  25
ENDBRANCH   7  23
TORSDOF 3
ENDMDL
MODEL 13
REMARK VINA RESULT:      -7.7      3.782     10.084
REMARK  3 active torsions:
REMARK  status: ('A' for Active; 'I' for Inactive)
REMARK    1  A    between atoms: C7_7  and  N3_11 
REMARK    2  A    between atoms: N3_11  and  C9_12 
REMARK    3  A    between atoms: C9_12  and  C10_13 
ROOT
ATOM      1  C1   11 d         -12.841 205.977 116.019  0.00  0.00     0.134 A 
ATOM      2  C2   11 d         -11.857 206.562 116.866  0.00  0.00    -0.005 A 
ATOM      3  C3   11 d         -11.921 206.395 118.249  0.00  0.00    -0.033 A 
ATOM      4  C4   11 d         -12.981 205.665 118.795  0.00  0.00     0.037 A 
ATOM      5  C5   11 d         -13.321 205.381 120.119  0.00  0.00     0.092 A 
ATOM      6  C6   11 d         -14.485 204.619 120.149  0.00  0.00     0.082 A 
ATOM      7  C7   11 d         -15.031 204.217 121.381  0.00  0.00     0.144 A 
ATOM      8  N1   11 d         -14.354 204.600 122.512  0.00  0.00    -0.223 NA
ATOM      9  C8   11 d         -13.201 205.343 122.465  0.00  0.00     0.236 A 
ATOM     10  N2   11 d         -12.682 205.739 121.264  0.00  0.00    -0.240 NA
ATOM     11  S1   11 d         -14.964 204.371 118.742  0.00  0.00    -0.063 SA
ATOM     12  C14  11 d         -13.919 205.092 117.942  0.00  0.00     0.114 A 
ATOM     13  N4   11 d         -13.848 205.233 116.590  0.00  0.00    -0.223 NA
ATOM     14  C15  11 d         -10.949 207.273 118.954  0.00  0.00     0.040 C 
ATOM     15  C16  11 d         -10.622 208.307 117.871  0.00  0.00     0.009 C 
ATOM     16  C17  11 d         -10.839 207.599 116.528  0.00  0.00     0.043 C 
ATOM     17  N5   11 d         -12.861 206.143 114.638  0.00  0.00    -0.361 N 
ATOM     18  C18  11 d         -14.055 206.569 113.990  0.00  0.00     0.150 C 
ATOM     19  C19  11 d         -13.765 207.717 113.013  0.00  0.00     0.187 C 
ATOM     20  O2   11 d         -12.682 207.369 112.105  0.00  0.00    -0.388 OA
ATOM     21  C20  11 d         -11.471 207.058 112.850  0.00  0.00     0.187 C 
ATOM     22  C21  11 d         -11.710 205.902 113.833  0.00  0.00     0.150 C 
ENDROOT
BRANCH   7  23
ATOM     23  N3   11 d         -16.212 203.488 121.475  0.00  0.00    -0.367 N 
ATOM     24  H2   11 d         -16.212 202.550 121.153  0.00  0.00     0.161 HD
BRANCH  23  25
ATOM     25  C9   11 d         -17.399 204.054 122.011  0.00  0.00     0.186 C 
BRANCH  25  26
ATOM     26  C10  11 d         -18.656 203.909 121.186  0.00  0.00     0.070 A 
ATOM     27  O1   11 d         -18.596 203.636 119.904  0.00  0.00    -0.325 OA
ATOM     28  C11  11 d         -19.824 203.562 119.452  0.00  0.00     0.142 A 
ATOM     29  C12  11 d         -20.738 203.794 120.463  0.00  0.00     0.027 A 
ATOM     30  C13  11 d         -19.982 204.022 121.595  0.00  0.00     0.036 A 
ENDBRANCH  25  26
ENDBRANCH  23  25
ENDBRANCH   7  23
TORSDOF 3
ENDMDL
MODEL 14
REMARK VINA RESULT:      -7.4      4.020      7.913
REMARK  3 active torsions:
REMARK  status: ('A' for Active; 'I' for Inactive)
REMARK    1  A    between atoms: C7_7  and  N3_11 
REMARK    2  A    between atoms: N3_11  and  C9_12 
REMARK    3  A    between atoms: C9_12  and  C10_13 
ROOT
ATOM      1  C1   11 d          -8.074 207.667 119.120  0.00  0.00     0.134 A 
ATOM      2  C2   11 d          -8.702 206.716 119.975  0.00  0.00    -0.005 A 
ATOM      3  C3   11 d          -9.947 206.181 119.647  0.00  0.00    -0.033 A 
ATOM      4  C4   11 d         -10.583 206.611 118.478  0.00  0.00     0.037 A 
ATOM      5  C5   11 d         -11.829 206.291 117.934  0.00  0.00     0.092 A 
ATOM      6  C6   11 d         -12.014 206.995 116.749  0.00  0.00     0.082 A 
ATOM      7  C7   11 d         -13.208 206.843 116.020  0.00  0.00     0.144 A 
ATOM      8  N1   11 d         -14.138 205.972 116.531  0.00  0.00    -0.223 NA
ATOM      9  C8   11 d         -13.934 205.277 117.696  0.00  0.00     0.236 A 
ATOM     10  N2   11 d         -12.777 205.438 118.405  0.00  0.00    -0.240 NA
ATOM     11  S1   11 d         -10.806 207.852 116.473  0.00  0.00    -0.063 SA
ATOM     12  C14  11 d          -9.939 207.529 117.655  0.00  0.00     0.114 A 
ATOM     13  N4   11 d          -8.713 208.037 117.959  0.00  0.00    -0.223 NA
ATOM     14  C15  11 d         -10.524 205.400 120.775  0.00  0.00     0.040 C 
ATOM     15  C16  11 d          -9.696 205.910 121.960  0.00  0.00     0.009 C 
ATOM     16  C17  11 d          -8.348 206.353 121.378  0.00  0.00     0.043 C 
ATOM     17  N5   11 d          -6.855 208.272 119.410  0.00  0.00    -0.361 N 
ATOM     18  C18  11 d          -6.733 209.690 119.351  0.00  0.00     0.150 C 
ATOM     19  C19  11 d          -6.044 210.230 120.612  0.00  0.00     0.187 C 
ATOM     20  O2   11 d          -4.792 209.531 120.862  0.00  0.00    -0.388 OA
ATOM     21  C20  11 d          -5.028 208.103 121.022  0.00  0.00     0.187 C 
ATOM     22  C21  11 d          -5.705 207.514 119.775  0.00  0.00     0.150 C 
ENDROOT
BRANCH   7  23
ATOM     23  N3   11 d         -13.466 207.548 114.850  0.00  0.00    -0.367 N 
ATOM     24  H2   11 d         -12.696 207.830 114.291  0.00  0.00     0.161 HD
BRANCH  23  25
ATOM     25  C9   11 d         -14.790 207.872 114.448  0.00  0.00     0.186 C 
BRANCH  25  26
ATOM     26  C10  11 d         -15.302 207.209 113.191  0.00  0.00     0.070 A 
ATOM     27  O1   11 d         -16.393 206.480 113.207  0.00  0.00    -0.325 OA
ATOM     28  C11  11 d         -16.600 206.042 111.990  0.00  0.00     0.142 A 
ATOM     29  C12  11 d         -15.616 206.490 111.129  0.00  0.00     0.027 A 
ATOM     30  C13  11 d         -14.766 207.250 111.907  0.00  0.00     0.036 A 
ENDBRANCH  25  26
ENDBRANCH  23  25
ENDBRANCH   7  23
TORSDOF 3
ENDMDL
MODEL 15
REMARK VINA RESULT:      -7.3      3.762      7.635
REMARK  3 active torsions:
REMARK  status: ('A' for Active; 'I' for Inactive)
REMARK    1  A    between atoms: C7_7  and  N3_11 
REMARK    2  A    between atoms: N3_11  and  C9_12 
REMARK    3  A    between atoms: C9_12  and  C10_13 
ROOT
ATOM      1  C1   11 d          -6.851 208.751 117.974  0.00  0.00     0.134 A 
ATOM      2  C2   11 d          -6.019 209.257 116.934  0.00  0.00    -0.005 A 
ATOM      3  C3   11 d          -6.504 209.375 115.632  0.00  0.00    -0.033 A 
ATOM      4  C4   11 d          -7.812 208.967 115.357  0.00  0.00     0.037 A 
ATOM      5  C5   11 d          -8.534 208.926 114.162  0.00  0.00     0.092 A 
ATOM      6  C6   11 d          -9.809 208.424 114.404  0.00  0.00     0.082 A 
ATOM      7  C7   11 d         -10.721 208.279 113.344  0.00  0.00     0.144 A 
ATOM      8  N1   11 d         -10.290 208.668 112.100  0.00  0.00    -0.223 NA
ATOM      9  C8   11 d          -9.033 209.171 111.880  0.00  0.00     0.236 A 
ATOM     10  N2   11 d          -8.148 209.299 112.913  0.00  0.00    -0.240 NA
ATOM     11  S1   11 d          -9.957 208.103 115.869  0.00  0.00    -0.063 SA
ATOM     12  C14  11 d          -8.606 208.491 116.396  0.00  0.00     0.114 A 
ATOM     13  N4   11 d          -8.144 208.394 117.672  0.00  0.00    -0.223 NA
ATOM     14  C15  11 d          -5.416 209.694 114.668  0.00  0.00     0.040 C 
ATOM     15  C16  11 d          -4.169 209.302 115.467  0.00  0.00     0.009 C 
ATOM     16  C17  11 d          -4.542 209.464 116.945  0.00  0.00     0.043 C 
ATOM     17  N5   11 d          -6.415 208.565 119.282  0.00  0.00    -0.361 N 
ATOM     18  C18  11 d          -6.619 207.312 119.928  0.00  0.00     0.150 C 
ATOM     19  C19  11 d          -5.327 206.830 120.602  0.00  0.00     0.187 C 
ATOM     20  O2   11 d          -4.770 207.863 121.462  0.00  0.00    -0.388 OA
ATOM     21  C20  11 d          -4.487 209.068 120.694  0.00  0.00     0.187 C 
ATOM     22  C21  11 d          -5.758 209.597 120.012  0.00  0.00     0.150 C 
ENDROOT
BRANCH   7  23
ATOM     23  N3   11 d         -11.994 207.748 113.518  0.00  0.00    -0.367 N 
ATOM     24  H2   11 d         -12.684 208.313 113.951  0.00  0.00     0.161 HD
BRANCH  23  25
ATOM     25  C9   11 d         -12.318 206.429 113.098  0.00  0.00     0.186 C 
BRANCH  25  26
ATOM     26  C10  11 d         -13.639 206.244 112.390  0.00  0.00     0.070 A 
ATOM     27  O1   11 d         -13.706 205.625 111.234  0.00  0.00    -0.325 OA
ATOM     28  C11  11 d         -14.962 205.606 110.863  0.00  0.00     0.142 A 
ATOM     29  C12  11 d         -15.765 206.233 111.797  0.00  0.00     0.027 A 
ATOM     30  C13  11 d         -14.907 206.653 112.794  0.00  0.00     0.036 A 
ENDBRANCH  25  26
ENDBRANCH  23  25
ENDBRANCH   7  23
TORSDOF 3
ENDMDL
MODEL 16
REMARK VINA RESULT:      -7.2      2.918      5.721
REMARK  3 active torsions:
REMARK  status: ('A' for Active; 'I' for Inactive)
REMARK    1  A    between atoms: C7_7  and  N3_11 
REMARK    2  A    between atoms: N3_11  and  C9_12 
REMARK    3  A    between atoms: C9_12  and  C10_13 
ROOT
ATOM      1  C1   11 d         -13.901 205.507 118.750  0.00  0.00     0.134 A 
ATOM      2  C2   11 d         -12.681 205.867 119.392  0.00  0.00    -0.005 A 
ATOM      3  C3   11 d         -11.680 206.536 118.689  0.00  0.00    -0.033 A 
ATOM      4  C4   11 d         -11.881 206.828 117.336  0.00  0.00     0.037 A 
ATOM      5  C5   11 d         -11.052 207.433 116.389  0.00  0.00     0.092 A 
ATOM      6  C6   11 d         -11.707 207.487 115.163  0.00  0.00     0.082 A 
ATOM      7  C7   11 d         -11.063 208.049 114.046  0.00  0.00     0.144 A 
ATOM      8  N1   11 d          -9.796 208.538 114.244  0.00  0.00    -0.223 NA
ATOM      9  C8   11 d          -9.168 208.486 115.463  0.00  0.00     0.236 A 
ATOM     10  N2   11 d          -9.796 207.929 116.541  0.00  0.00    -0.240 NA
ATOM     11  S1   11 d         -13.078 206.874 115.292  0.00  0.00    -0.063 SA
ATOM     12  C14  11 d         -13.088 206.478 116.741  0.00  0.00     0.114 A 
ATOM     13  N4   11 d         -14.078 205.844 117.428  0.00  0.00    -0.223 NA
ATOM     14  C15  11 d         -10.413 206.603 119.467  0.00  0.00     0.040 C 
ATOM     15  C16  11 d         -10.634 205.507 120.514  0.00  0.00     0.009 C 
ATOM     16  C17  11 d         -12.152 205.402 120.707  0.00  0.00     0.043 C 
ATOM     17  N5   11 d         -14.919 204.800 119.381  0.00  0.00    -0.361 N 
ATOM     18  C18  11 d         -15.462 203.636 118.767  0.00  0.00     0.150 C 
ATOM     19  C19  11 d         -15.542 202.477 119.771  0.00  0.00     0.187 C 
ATOM     20  O2   11 d         -16.227 202.887 120.987  0.00  0.00    -0.388 OA
ATOM     21  C20  11 d         -15.538 204.010 121.608  0.00  0.00     0.187 C 
ATOM     22  C21  11 d         -15.447 205.201 120.642  0.00  0.00     0.150 C 
ENDROOT
BRANCH   7  23
ATOM     23  N3   11 d         -11.652 208.097 112.787  0.00  0.00    -0.367 N 
ATOM     24  H2   11 d         -12.049 208.954 112.486  0.00  0.00     0.161 HD
BRANCH  23  25
ATOM     25  C9   11 d         -11.699 206.956 111.940  0.00  0.00     0.186 C 
BRANCH  25  26
ATOM     26  C10  11 d         -13.064 206.514 111.468  0.00  0.00     0.070 A 
ATOM     27  O1   11 d         -13.708 205.545 112.076  0.00  0.00    -0.325 OA
ATOM     28  C11  11 d         -14.855 205.382 111.463  0.00  0.00     0.142 A 
ATOM     29  C12  11 d         -14.984 206.267 110.410  0.00  0.00     0.027 A 
ATOM     30  C13  11 d         -13.819 207.006 110.408  0.00  0.00     0.036 A 
ENDBRANCH  25  26
ENDBRANCH  23  25
ENDBRANCH   7  23
TORSDOF 3
ENDMDL
MODEL 17
REMARK VINA RESULT:      -6.9      4.613      7.916
REMARK  3 active torsions:
REMARK  status: ('A' for Active; 'I' for Inactive)
REMARK    1  A    between atoms: C7_7  and  N3_11 
REMARK    2  A    between atoms: N3_11  and  C9_12 
REMARK    3  A    between atoms: C9_12  and  C10_13 
ROOT
ATOM      1  C1   11 d         -12.578 204.731 122.250  0.00  0.00     0.134 A 
ATOM      2  C2   11 d         -11.250 205.139 121.935  0.00  0.00    -0.005 A 
ATOM      3  C3   11 d         -10.959 205.718 120.700  0.00  0.00    -0.033 A 
ATOM      4  C4   11 d         -11.987 205.870 119.764  0.00  0.00     0.037 A 
ATOM      5  C5   11 d         -11.980 206.362 118.457  0.00  0.00     0.092 A 
ATOM      6  C6   11 d         -13.265 206.298 117.928  0.00  0.00     0.082 A 
ATOM      7  C7   11 d         -13.506 206.732 116.612  0.00  0.00     0.144 A 
ATOM      8  N1   11 d         -12.429 207.221 115.915  0.00  0.00    -0.223 NA
ATOM      9  C8   11 d         -11.170 207.287 116.456  0.00  0.00     0.236 A 
ATOM     10  N2   11 d         -10.941 206.854 117.732  0.00  0.00    -0.240 NA
ATOM     11  S1   11 d         -14.207 205.720 118.953  0.00  0.00    -0.063 SA
ATOM     12  C14  11 d         -13.277 205.476 120.106  0.00  0.00     0.114 A 
ATOM     13  N4   11 d         -13.570 204.932 121.318  0.00  0.00    -0.223 NA
ATOM     14  C15  11 d          -9.492 205.848 120.486  0.00  0.00     0.040 C 
ATOM     15  C16  11 d          -8.939 204.870 121.528  0.00  0.00     0.009 C 
ATOM     16  C17  11 d          -9.983 204.806 122.649  0.00  0.00     0.043 C 
ATOM     17  N5   11 d         -12.926 204.107 123.443  0.00  0.00    -0.361 N 
ATOM     18  C18  11 d         -13.669 202.893 123.421  0.00  0.00     0.150 C 
ATOM     19  C19  11 d         -13.031 201.846 124.344  0.00  0.00     0.187 C 
ATOM     20  O2   11 d         -12.812 202.389 125.676  0.00  0.00    -0.388 OA
ATOM     21  C20  11 d         -11.950 203.561 125.615  0.00  0.00     0.187 C 
ATOM     22  C21  11 d         -12.557 204.645 124.711  0.00  0.00     0.150 C 
ENDROOT
BRANCH   7  23
ATOM     23  N3   11 d         -14.760 206.656 116.016  0.00  0.00    -0.367 N 
ATOM     24  H2   11 d         -15.434 207.345 116.251  0.00  0.00     0.161 HD
BRANCH  23  25
ATOM     25  C9   11 d         -15.089 205.625 115.096  0.00  0.00     0.186 C 
BRANCH  25  26
ATOM     26  C10  11 d         -15.606 206.057 113.744  0.00  0.00     0.070 A 
ATOM     27  O1   11 d         -16.824 205.756 113.358  0.00  0.00    -0.325 OA
ATOM     28  C11  11 d         -17.000 206.260 112.161  0.00  0.00     0.142 A 
ATOM     29  C12  11 d         -15.864 206.917 111.728  0.00  0.00     0.027 A 
ATOM     30  C13  11 d         -14.952 206.787 112.756  0.00  0.00     0.036 A 
ENDBRANCH  25  26
ENDBRANCH  23  25
ENDBRANCH   7  23
TORSDOF 3
ENDMDL
MODEL 18
REMARK VINA RESULT:      -6.8      4.393      8.836
REMARK  3 active torsions:
REMARK  status: ('A' for Active; 'I' for Inactive)
REMARK    1  A    between atoms: C7_7  and  N3_11 
REMARK    2  A    between atoms: N3_11  and  C9_12 
REMARK    3  A    between atoms: C9_12  and  C10_13 
ROOT
ATOM      1  C1   11 d          -5.425 208.869 114.741  0.00  0.00     0.134 A 
ATOM      2  C2   11 d          -6.640 208.979 114.007  0.00  0.00    -0.005 A 
ATOM      3  C3   11 d          -7.871 208.834 114.646  0.00  0.00    -0.033 A 
ATOM      4  C4   11 d          -7.894 208.554 116.016  0.00  0.00     0.037 A 
ATOM      5  C5   11 d          -8.955 208.314 116.891  0.00  0.00     0.092 A 
ATOM      6  C6   11 d          -8.460 208.069 118.168  0.00  0.00     0.082 A 
ATOM      7  C7   11 d          -9.345 207.791 119.225  0.00  0.00     0.144 A 
ATOM      8  N1   11 d         -10.685 207.793 118.925  0.00  0.00    -0.223 NA
ATOM      9  C8   11 d         -11.158 208.047 117.662  0.00  0.00     0.236 A 
ATOM     10  N2   11 d         -10.290 208.307 116.639  0.00  0.00    -0.240 NA
ATOM     11  S1   11 d          -6.955 208.149 118.153  0.00  0.00    -0.063 SA
ATOM     12  C14  11 d          -6.691 208.467 116.709  0.00  0.00     0.114 A 
ATOM     13  N4   11 d          -5.488 208.630 116.094  0.00  0.00    -0.223 NA
ATOM     14  C15  11 d          -8.991 208.748 113.670  0.00  0.00     0.040 C 
ATOM     15  C16  11 d          -8.248 208.400 112.376  0.00  0.00     0.009 C 
ATOM     16  C17  11 d          -6.835 208.977 112.528  0.00  0.00     0.043 C 
ATOM     17  N5   11 d          -4.165 208.958 114.156  0.00  0.00    -0.361 N 
ATOM     18  C18  11 d          -3.193 207.947 114.404  0.00  0.00     0.150 C 
ATOM     19  C19  11 d          -2.551 207.476 113.091  0.00  0.00     0.187 C 
ATOM     20  O2   11 d          -2.057 208.605 112.317  0.00  0.00    -0.388 OA
ATOM     21  C20  11 d          -3.141 209.528 112.013  0.00  0.00     0.187 C 
ATOM     22  C21  11 d          -3.806 210.040 113.300  0.00  0.00     0.150 C 
ENDROOT
BRANCH   7  23
ATOM     23  N3   11 d          -8.908 207.501 120.512  0.00  0.00    -0.367 N 
ATOM     24  H2   11 d          -8.550 208.242 121.066  0.00  0.00     0.161 HD
BRANCH  23  25
ATOM     25  C9   11 d          -8.959 206.182 121.040  0.00  0.00     0.186 C 
BRANCH  25  26
ATOM     26  C10  11 d          -7.687 205.371 120.972  0.00  0.00     0.070 A 
ATOM     27  O1   11 d          -7.399 204.650 119.914  0.00  0.00    -0.325 OA
ATOM     28  C11  11 d          -6.246 204.067 120.128  0.00  0.00     0.142 A 
ATOM     29  C12  11 d          -5.744 204.404 121.371  0.00  0.00     0.027 A 
ATOM     30  C13  11 d          -6.680 205.253 121.926  0.00  0.00     0.036 A 
ENDBRANCH  25  26
ENDBRANCH  23  25
ENDBRANCH   7  23
TORSDOF 3
ENDMDL
MODEL 19
REMARK VINA RESULT:      -6.8      4.528      8.951
REMARK  3 active torsions:
REMARK  status: ('A' for Active; 'I' for Inactive)
REMARK    1  A    between atoms: C7_7  and  N3_11 
REMARK    2  A    between atoms: N3_11  and  C9_12 
REMARK    3  A    between atoms: C9_12  and  C10_13 
ROOT
ATOM      1  C1   11 d          -5.145 208.945 114.708  0.00  0.00     0.134 A 
ATOM      2  C2   11 d          -6.383 208.989 114.005  0.00  0.00    -0.005 A 
ATOM      3  C3   11 d          -7.592 208.854 114.686  0.00  0.00    -0.033 A 
ATOM      4  C4   11 d          -7.571 208.649 116.069  0.00  0.00     0.037 A 
ATOM      5  C5   11 d          -8.602 208.436 116.987  0.00  0.00     0.092 A 
ATOM      6  C6   11 d          -8.066 208.272 118.260  0.00  0.00     0.082 A 
ATOM      7  C7   11 d          -8.916 208.034 119.355  0.00  0.00     0.144 A 
ATOM      8  N1   11 d         -10.263 207.992 119.095  0.00  0.00    -0.223 NA
ATOM      9  C8   11 d         -10.776 208.166 117.834  0.00  0.00     0.236 A 
ATOM     10  N2   11 d          -9.943 208.387 116.773  0.00  0.00    -0.240 NA
ATOM     11  S1   11 d          -6.565 208.382 118.197  0.00  0.00    -0.063 SA
ATOM     12  C14  11 d          -6.347 208.625 116.732  0.00  0.00     0.114 A 
ATOM     13  N4   11 d          -5.166 208.780 116.074  0.00  0.00    -0.223 NA
ATOM     14  C15  11 d          -8.736 208.691 113.749  0.00  0.00     0.040 C 
ATOM     15  C16  11 d          -8.021 208.288 112.455  0.00  0.00     0.009 C 
ATOM     16  C17  11 d          -6.618 208.902 112.534  0.00  0.00     0.043 C 
ATOM     17  N5   11 d          -3.905 209.028 114.084  0.00  0.00    -0.361 N 
ATOM     18  C18  11 d          -2.904 208.053 114.358  0.00  0.00     0.150 C 
ATOM     19  C19  11 d          -2.288 207.524 113.056  0.00  0.00     0.187 C 
ATOM     20  O2   11 d          -1.841 208.618 112.207  0.00  0.00    -0.388 OA
ATOM     21  C20  11 d          -2.953 209.501 111.885  0.00  0.00     0.187 C 
ATOM     22  C21  11 d          -3.594 210.068 113.161  0.00  0.00     0.150 C 
ENDROOT
BRANCH   7  23
ATOM     23  N3   11 d          -8.437 207.824 120.644  0.00  0.00    -0.367 N 
ATOM     24  H2   11 d          -7.956 206.978 120.835  0.00  0.00     0.161 HD
BRANCH  23  25
ATOM     25  C9   11 d          -8.624 208.783 121.676  0.00  0.00     0.186 C 
BRANCH  25  26
ATOM     26  C10  11 d          -7.498 209.761 121.912  0.00  0.00     0.070 A 
ATOM     27  O1   11 d          -6.986 209.927 123.109  0.00  0.00    -0.325 OA
ATOM     28  C11  11 d          -6.031 210.820 123.015  0.00  0.00     0.142 A 
ATOM     29  C12  11 d          -5.899 211.269 121.715  0.00  0.00     0.027 A 
ATOM     30  C13  11 d          -6.854 210.582 120.991  0.00  0.00     0.036 A 
ENDBRANCH  25  26
ENDBRANCH  23  25
ENDBRANCH   7  23
TORSDOF 3
ENDMDL
MODEL 20
REMARK VINA RESULT:      -6.8      4.461      8.218
REMARK  3 active torsions:
REMARK  status: ('A' for Active; 'I' for Inactive)
REMARK    1  A    between atoms: C7_7  and  N3_11 
REMARK    2  A    between atoms: N3_11  and  C9_12 
REMARK    3  A    between atoms: C9_12  and  C10_13 
ROOT
ATOM      1  C1   11 d          -5.782 209.877 118.975  0.00  0.00     0.134 A 
ATOM      2  C2   11 d          -4.369 209.725 118.874  0.00  0.00    -0.005 A 
ATOM      3  C3   11 d          -3.773 209.436 117.646  0.00  0.00    -0.033 A 
ATOM      4  C4   11 d          -4.586 209.274 116.520  0.00  0.00     0.037 A 
ATOM      5  C5   11 d          -4.277 208.940 115.200  0.00  0.00     0.092 A 
ATOM      6  C6   11 d          -5.446 208.889 114.447  0.00  0.00     0.082 A 
ATOM      7  C7   11 d          -5.388 208.561 113.080  0.00  0.00     0.144 A 
ATOM      8  N1   11 d          -4.143 208.319 112.554  0.00  0.00    -0.223 NA
ATOM      9  C8   11 d          -2.999 208.385 113.309  0.00  0.00     0.236 A 
ATOM     10  N2   11 d          -3.064 208.694 114.639  0.00  0.00    -0.240 NA
ATOM     11  S1   11 d          -6.629 209.211 115.323  0.00  0.00    -0.063 SA
ATOM     12  C14  11 d          -5.961 209.443 116.647  0.00  0.00     0.114 A 
ATOM     13  N4   11 d          -6.545 209.747 117.839  0.00  0.00    -0.223 NA
ATOM     14  C15  11 d          -2.335 209.087 117.803  0.00  0.00     0.040 C 
ATOM     15  C16  11 d          -2.257 208.756 119.297  0.00  0.00     0.009 C 
ATOM     16  C17  11 d          -3.371 209.566 119.971  0.00  0.00     0.043 C 
ATOM     17  N5   11 d          -6.442 210.120 120.176  0.00  0.00    -0.361 N 
ATOM     18  C18  11 d          -7.547 209.306 120.557  0.00  0.00     0.150 C 
ATOM     19  C19  11 d          -7.400 208.836 122.011  0.00  0.00     0.187 C 
ATOM     20  O2   11 d          -7.149 209.959 122.900  0.00  0.00    -0.388 OA
ATOM     21  C20  11 d          -5.939 210.665 122.503  0.00  0.00     0.187 C 
ATOM     22  C21  11 d          -6.046 211.169 121.055  0.00  0.00     0.150 C 
ENDROOT
BRANCH   7  23
ATOM     23  N3   11 d          -6.525 208.457 112.286  0.00  0.00    -0.367 N 
ATOM     24  H2   11 d          -6.532 207.779 111.562  0.00  0.00     0.161 HD
BRANCH  23  25
ATOM     25  C9   11 d          -7.656 209.293 112.487  0.00  0.00     0.186 C 
BRANCH  25  26
ATOM     26  C10  11 d          -9.010 208.625 112.461  0.00  0.00     0.070 A 
ATOM     27  O1   11 d          -9.591 208.229 113.569  0.00  0.00    -0.325 OA
ATOM     28  C11  11 d         -10.745 207.698 113.249  0.00  0.00     0.142 A 
ATOM     29  C12  11 d         -10.945 207.734 111.882  0.00  0.00     0.027 A 
ATOM     30  C13  11 d          -9.816 208.336 111.363  0.00  0.00     0.036 A 
ENDBRANCH  25  26
ENDBRANCH  23  25
ENDBRANCH   7  23
TORSDOF 3
ENDMDL
