MODEL 1
REMARK VINA RESULT:      -9.6      0.000      0.000
REMARK  1 active torsions:
REMARK  status: ('A' for Active; 'I' for Inactive)
REMARK       I    between atoms: C1_1  and  N1_2 
REMARK       I    between atoms: C1_1  and  N3_15 
REMARK    1  A    between atoms: N3_15  and  C12_16 
ROOT
ATOM      1  C1   11 d         -13.158 207.163 115.681  0.00  0.00     0.323 C 
ATOM      2  N1   11 d         -13.351 206.798 117.038  0.00  0.00    -0.331 N 
ATOM      3  C2   11 d         -12.398 207.280 118.074  0.00  0.00     0.155 C 
ATOM      4  C3   11 d         -11.906 206.075 118.873  0.00  0.00     0.255 C 
ATOM      5  N2   11 d         -13.017 205.212 119.431  0.00  0.00    -0.064 N 
ATOM      6  C4   11 d         -13.579 205.695 120.775  0.00  0.00     0.188 C 
ATOM      7  C5   11 d         -13.785 204.571 121.831  0.00  0.00     0.033 C 
ATOM      8  C6   11 d         -15.127 203.841 121.708  0.00  0.00     0.002 C 
ATOM      9  C7   11 d         -16.298 204.826 121.778  0.00  0.00     0.000 C 
ATOM     10  C8   11 d         -16.181 205.941 120.733  0.00  0.00     0.002 C 
ATOM     11  C9   11 d         -14.811 206.643 120.778  0.00  0.00     0.033 C 
ATOM     12  C10  11 d         -13.989 204.803 118.347  0.00  0.00     0.255 C 
ATOM     13  C11  11 d         -14.497 205.940 117.446  0.00  0.00     0.155 C 
ATOM     14  O1   11 d         -13.126 208.403 115.368  0.00  0.00    -0.247 OA
ATOM     15  N3   11 d         -12.998 206.154 114.695  0.00  0.00    -0.308 N 
ATOM     16  H5   11 d         -12.501 204.298 119.663  0.00  0.00     0.280 HD
ATOM     17  H21  11 d         -13.033 205.119 114.968  0.00  0.00     0.170 HD
ENDROOT
BRANCH  15  18
ATOM     18  C12  11 d         -12.789 206.483 113.282  0.00  0.00     0.047 A 
ATOM     19  C13  11 d         -13.849 206.569 112.341  0.00  0.00     0.001 A 
ATOM     20  C14  11 d         -13.550 206.881 110.983  0.00  0.00    -0.024 A 
ATOM     21  C21  11 d         -15.199 206.386 112.715  0.00  0.00     0.014 A 
ATOM     22  C15  11 d         -12.217 207.107 110.591  0.00  0.00     0.012 A 
ATOM     23  C18  11 d         -14.590 206.977 110.038  0.00  0.00     0.012 A 
ATOM     24  C16  11 d         -11.185 207.041 111.533  0.00  0.00     0.003 A 
ATOM     25  C17  11 d         -11.470 206.738 112.871  0.00  0.00     0.030 A 
ATOM     26  C19  11 d         -15.920 206.779 110.428  0.00  0.00     0.001 A 
ATOM     27  C20  11 d         -16.224 206.488 111.764  0.00  0.00     0.001 A 
ENDBRANCH  15  18
TORSDOF 1
ENDMDL
MODEL 2
REMARK VINA RESULT:      -9.4      5.521      7.380
REMARK  1 active torsions:
REMARK  status: ('A' for Active; 'I' for Inactive)
REMARK       I    between atoms: C1_1  and  N1_2 
REMARK       I    between atoms: C1_1  and  N3_15 
REMARK    1  A    between atoms: N3_15  and  C12_16 
ROOT
ATOM      1  C1   11 d          -8.455 209.231 114.084  0.00  0.00     0.323 C 
ATOM      2  N1   11 d          -7.414 209.388 115.035  0.00  0.00    -0.331 N 
ATOM      3  C2   11 d          -6.262 210.277 114.726  0.00  0.00     0.155 C 
ATOM      4  C3   11 d          -4.972 209.489 114.949  0.00  0.00     0.255 C 
ATOM      5  N2   11 d          -4.880 208.834 116.310  0.00  0.00    -0.064 N 
ATOM      6  C4   11 d          -4.344 209.750 117.418  0.00  0.00     0.188 C 
ATOM      7  C5   11 d          -3.280 209.091 118.343  0.00  0.00     0.033 C 
ATOM      8  C6   11 d          -3.877 208.291 119.506  0.00  0.00     0.002 C 
ATOM      9  C7   11 d          -4.815 209.160 120.349  0.00  0.00     0.000 C 
ATOM     10  C8   11 d          -5.918 209.809 119.505  0.00  0.00     0.002 C 
ATOM     11  C9   11 d          -5.355 210.556 118.282  0.00  0.00     0.033 C 
ATOM     12  C10  11 d          -6.104 207.993 116.596  0.00  0.00     0.255 C 
ATOM     13  C11  11 d          -7.456 208.679 116.343  0.00  0.00     0.155 C 
ATOM     14  O1   11 d          -9.095 210.264 113.685  0.00  0.00    -0.247 OA
ATOM     15  N3   11 d          -8.767 207.938 113.588  0.00  0.00    -0.308 N 
ATOM     16  H5   11 d          -4.105 208.104 116.159  0.00  0.00     0.280 HD
ATOM     17  H21  11 d          -8.228 207.079 113.934  0.00  0.00     0.170 HD
ENDROOT
BRANCH  15  18
ATOM     18  C12  11 d          -9.828 207.728 112.599  0.00  0.00     0.047 A 
ATOM     19  C13  11 d         -11.065 207.105 112.912  0.00  0.00     0.001 A 
ATOM     20  C14  11 d         -12.036 206.928 111.882  0.00  0.00    -0.024 A 
ATOM     21  C21  11 d         -11.381 206.682 114.222  0.00  0.00     0.014 A 
ATOM     22  C15  11 d         -11.763 207.377 110.576  0.00  0.00     0.012 A 
ATOM     23  C18  11 d         -13.271 206.319 112.176  0.00  0.00     0.012 A 
ATOM     24  C16  11 d         -10.548 208.008 110.287  0.00  0.00     0.003 A 
ATOM     25  C17  11 d          -9.590 208.188 111.293  0.00  0.00     0.030 A 
ATOM     26  C19  11 d         -13.557 205.896 113.480  0.00  0.00     0.001 A 
ATOM     27  C20  11 d         -12.616 206.080 114.501  0.00  0.00     0.001 A 
ENDBRANCH  15  18
TORSDOF 1
ENDMDL
MODEL 3
REMARK VINA RESULT:      -9.3      4.697      8.273
REMARK  1 active torsions:
REMARK  status: ('A' for Active; 'I' for Inactive)
REMARK       I    between atoms: C1_1  and  N1_2 
REMARK       I    between atoms: C1_1  and  N3_15 
REMARK    1  A    between atoms: N3_15  and  C12_16 
ROOT
ATOM      1  C1   11 d          -9.288 208.835 113.993  0.00  0.00     0.323 C 
ATOM      2  N1   11 d         -10.568 208.264 113.768  0.00  0.00    -0.331 N 
ATOM      3  C2   11 d         -11.617 208.374 114.817  0.00  0.00     0.155 C 
ATOM      4  C3   11 d         -12.161 206.975 115.101  0.00  0.00     0.255 C 
ATOM      5  N2   11 d         -12.619 206.230 113.867  0.00  0.00    -0.064 N 
ATOM      6  C4   11 d         -14.056 206.546 113.433  0.00  0.00     0.188 C 
ATOM      7  C5   11 d         -14.905 205.299 113.052  0.00  0.00     0.033 C 
ATOM      8  C6   11 d         -14.730 204.848 111.598  0.00  0.00     0.002 C 
ATOM      9  C7   11 d         -15.040 205.991 110.626  0.00  0.00     0.000 C 
ATOM     10  C8   11 d         -14.205 207.243 110.918  0.00  0.00     0.002 C 
ATOM     11  C9   11 d         -14.297 207.676 112.393  0.00  0.00     0.033 C 
ATOM     12  C10  11 d         -11.536 206.203 112.812  0.00  0.00     0.255 C 
ATOM     13  C11  11 d         -10.881 207.557 112.496  0.00  0.00     0.155 C 
ATOM     14  O1   11 d          -9.199 210.087 114.240  0.00  0.00    -0.247 OA
ATOM     15  N3   11 d          -8.132 208.013 113.944  0.00  0.00    -0.308 N 
ATOM     16  H5   11 d         -12.655 205.213 114.214  0.00  0.00     0.280 HD
ATOM     17  H21  11 d          -8.218 206.967 113.729  0.00  0.00     0.170 HD
ENDROOT
BRANCH  15  18
ATOM     18  C12  11 d          -6.791 208.556 114.176  0.00  0.00     0.047 A 
ATOM     19  C13  11 d          -6.275 208.822 115.472  0.00  0.00     0.001 A 
ATOM     20  C14  11 d          -4.963 209.364 115.602  0.00  0.00    -0.024 A 
ATOM     21  C21  11 d          -7.010 208.534 116.643  0.00  0.00     0.014 A 
ATOM     22  C15  11 d          -4.193 209.623 114.452  0.00  0.00     0.012 A 
ATOM     23  C18  11 d          -4.433 209.626 116.880  0.00  0.00     0.012 A 
ATOM     24  C16  11 d          -4.705 209.337 113.182  0.00  0.00     0.003 A 
ATOM     25  C17  11 d          -5.993 208.801 113.045  0.00  0.00     0.030 A 
ATOM     26  C19  11 d          -5.186 209.345 118.027  0.00  0.00     0.001 A 
ATOM     27  C20  11 d          -6.470 208.797 117.909  0.00  0.00     0.001 A 
ENDBRANCH  15  18
TORSDOF 1
ENDMDL
MODEL 4
REMARK VINA RESULT:      -9.3      4.216      8.208
REMARK  1 active torsions:
REMARK  status: ('A' for Active; 'I' for Inactive)
REMARK       I    between atoms: C1_1  and  N1_2 
REMARK       I    between atoms: C1_1  and  N3_15 
REMARK    1  A    between atoms: N3_15  and  C12_16 
ROOT
ATOM      1  C1   11 d         -10.203 208.635 115.265  0.00  0.00     0.323 C 
ATOM      2  N1   11 d         -11.293 207.962 114.655  0.00  0.00    -0.331 N 
ATOM      3  C2   11 d         -12.251 207.196 115.498  0.00  0.00     0.155 C 
ATOM      4  C3   11 d         -12.372 205.784 114.927  0.00  0.00     0.255 C 
ATOM      5  N2   11 d         -12.702 205.743 113.452  0.00  0.00    -0.064 N 
ATOM      6  C4   11 d         -14.200 205.847 113.136  0.00  0.00     0.188 C 
ATOM      7  C5   11 d         -14.706 204.837 112.065  0.00  0.00     0.033 C 
ATOM      8  C6   11 d         -14.526 205.319 110.621  0.00  0.00     0.002 C 
ATOM      9  C7   11 d         -15.207 206.674 110.404  0.00  0.00     0.000 C 
ATOM     10  C8   11 d         -14.722 207.733 111.402  0.00  0.00     0.002 C 
ATOM     11  C9   11 d         -14.817 207.247 112.860  0.00  0.00     0.033 C 
ATOM     12  C10  11 d         -11.736 206.587 112.651  0.00  0.00     0.255 C 
ATOM     13  C11  11 d         -11.499 208.011 113.182  0.00  0.00     0.155 C 
ATOM     14  O1   11 d         -10.439 209.518 116.160  0.00  0.00    -0.247 OA
ATOM     15  N3   11 d          -8.875 208.318 114.879  0.00  0.00    -0.308 N 
ATOM     16  H5   11 d         -12.435 204.737 113.185  0.00  0.00     0.280 HD
ATOM     17  H21  11 d          -8.690 207.581 114.123  0.00  0.00     0.170 HD
ENDROOT
BRANCH  15  18
ATOM     18  C12  11 d          -7.717 208.982 115.486  0.00  0.00     0.047 A 
ATOM     19  C13  11 d          -7.190 208.616 116.752  0.00  0.00     0.001 A 
ATOM     20  C14  11 d          -6.068 209.327 117.271  0.00  0.00    -0.024 A 
ATOM     21  C21  11 d          -7.721 207.544 117.503  0.00  0.00     0.014 A 
ATOM     22  C15  11 d          -5.494 210.374 116.525  0.00  0.00     0.012 A 
ATOM     23  C18  11 d          -5.528 208.972 118.522  0.00  0.00     0.012 A 
ATOM     24  C16  11 d          -6.011 210.710 115.269  0.00  0.00     0.003 A 
ATOM     25  C17  11 d          -7.111 210.014 114.750  0.00  0.00     0.030 A 
ATOM     26  C19  11 d          -6.079 207.915 119.255  0.00  0.00     0.001 A 
ATOM     27  C20  11 d          -7.171 207.200 118.746  0.00  0.00     0.001 A 
ENDBRANCH  15  18
TORSDOF 1
ENDMDL
MODEL 5
REMARK VINA RESULT:      -9.2      0.983      2.343
REMARK  1 active torsions:
REMARK  status: ('A' for Active; 'I' for Inactive)
REMARK       I    between atoms: C1_1  and  N1_2 
REMARK       I    between atoms: C1_1  and  N3_15 
REMARK    1  A    between atoms: N3_15  and  C12_16 
ROOT
ATOM      1  C1   11 d         -14.094 206.776 115.375  0.00  0.00     0.323 C 
ATOM      2  N1   11 d         -14.083 206.539 116.774  0.00  0.00    -0.331 N 
ATOM      3  C2   11 d         -13.391 207.497 117.677  0.00  0.00     0.155 C 
ATOM      4  C3   11 d         -12.422 206.712 118.559  0.00  0.00     0.255 C 
ATOM      5  N2   11 d         -13.057 205.548 119.288  0.00  0.00    -0.064 N 
ATOM      6  C4   11 d         -13.735 205.925 120.612  0.00  0.00     0.188 C 
ATOM      7  C5   11 d         -13.427 204.959 121.793  0.00  0.00     0.033 C 
ATOM      8  C6   11 d         -14.346 203.734 121.850  0.00  0.00     0.002 C 
ATOM      9  C7   11 d         -15.819 204.152 121.905  0.00  0.00     0.000 C 
ATOM     10  C8   11 d         -16.203 205.074 120.743  0.00  0.00     0.002 C 
ATOM     11  C9   11 d         -15.249 206.276 120.610  0.00  0.00     0.033 C 
ATOM     12  C10  11 d         -13.798 204.642 118.330  0.00  0.00     0.255 C 
ATOM     13  C11  11 d         -14.757 205.346 117.356  0.00  0.00     0.155 C 
ATOM     14  O1   11 d         -14.590 207.869 114.932  0.00  0.00    -0.247 OA
ATOM     15  N3   11 d         -13.555 205.804 114.491  0.00  0.00    -0.308 N 
ATOM     16  H5   11 d         -12.202 204.963 119.574  0.00  0.00     0.280 HD
ATOM     17  H21  11 d         -13.148 204.890 114.874  0.00  0.00     0.170 HD
ENDROOT
BRANCH  15  18
ATOM     18  C12  11 d         -13.538 206.008 113.040  0.00  0.00     0.047 A 
ATOM     19  C13  11 d         -12.490 206.688 112.365  0.00  0.00     0.001 A 
ATOM     20  C14  11 d         -12.564 206.851 110.951  0.00  0.00    -0.024 A 
ATOM     21  C21  11 d         -11.356 207.181 113.047  0.00  0.00     0.014 A 
ATOM     22  C15  11 d         -13.665 206.334 110.241  0.00  0.00     0.012 A 
ATOM     23  C18  11 d         -11.530 207.517 110.264  0.00  0.00     0.012 A 
ATOM     24  C16  11 d         -14.680 205.648 110.916  0.00  0.00     0.003 A 
ATOM     25  C17  11 d         -14.613 205.480 112.305  0.00  0.00     0.030 A 
ATOM     26  C19  11 d         -10.421 208.009 110.963  0.00  0.00     0.001 A 
ATOM     27  C20  11 d         -10.332 207.839 112.350  0.00  0.00     0.001 A 
ENDBRANCH  15  18
TORSDOF 1
ENDMDL
MODEL 6
REMARK VINA RESULT:      -9.2      4.709      8.177
REMARK  1 active torsions:
REMARK  status: ('A' for Active; 'I' for Inactive)
REMARK       I    between atoms: C1_1  and  N1_2 
REMARK       I    between atoms: C1_1  and  N3_15 
REMARK    1  A    between atoms: N3_15  and  C12_16 
ROOT
ATOM      1  C1   11 d          -9.325 208.902 114.004  0.00  0.00     0.323 C 
ATOM      2  N1   11 d         -10.590 208.303 113.770  0.00  0.00    -0.331 N 
ATOM      3  C2   11 d         -11.634 208.352 114.829  0.00  0.00     0.155 C 
ATOM      4  C3   11 d         -12.137 206.930 115.074  0.00  0.00     0.255 C 
ATOM      5  N2   11 d         -12.583 206.211 113.820  0.00  0.00    -0.064 N 
ATOM      6  C4   11 d         -14.032 206.501 113.406  0.00  0.00     0.188 C 
ATOM      7  C5   11 d         -14.850 205.243 112.991  0.00  0.00     0.033 C 
ATOM      8  C6   11 d         -14.673 204.842 111.523  0.00  0.00     0.002 C 
ATOM      9  C7   11 d         -15.022 206.005 110.589  0.00  0.00     0.000 C 
ATOM     10  C8   11 d         -14.219 207.270 110.914  0.00  0.00     0.002 C 
ATOM     11  C9   11 d         -14.312 207.655 112.402  0.00  0.00     0.033 C 
ATOM     12  C10  11 d         -11.508 206.246 112.757  0.00  0.00     0.255 C 
ATOM     13  C11  11 d         -10.893 207.628 112.479  0.00  0.00     0.155 C 
ATOM     14  O1   11 d          -9.269 210.148 114.289  0.00  0.00    -0.247 OA
ATOM     15  N3   11 d          -8.147 208.115 113.922  0.00  0.00    -0.308 N 
ATOM     16  H5   11 d         -12.589 205.184 114.136  0.00  0.00     0.280 HD
ATOM     17  H21  11 d          -8.206 207.074 113.675  0.00  0.00     0.170 HD
ENDROOT
BRANCH  15  18
ATOM     18  C12  11 d          -6.819 208.688 114.161  0.00  0.00     0.047 A 
ATOM     19  C13  11 d          -5.753 208.589 113.229  0.00  0.00     0.001 A 
ATOM     20  C14  11 d          -4.489 209.165 113.553  0.00  0.00    -0.024 A 
ATOM     21  C21  11 d          -5.913 207.966 111.971  0.00  0.00     0.014 A 
ATOM     22  C15  11 d          -4.314 209.827 114.783  0.00  0.00     0.012 A 
ATOM     23  C18  11 d          -3.423 209.083 112.636  0.00  0.00     0.012 A 
ATOM     24  C16  11 d          -5.379 209.935 115.683  0.00  0.00     0.003 A 
ATOM     25  C17  11 d          -6.625 209.375 115.371  0.00  0.00     0.030 A 
ATOM     26  C19  11 d          -3.601 208.448 111.401  0.00  0.00     0.001 A 
ATOM     27  C20  11 d          -4.843 207.894 111.068  0.00  0.00     0.001 A 
ENDBRANCH  15  18
TORSDOF 1
ENDMDL
MODEL 7
REMARK VINA RESULT:      -8.9      5.048      7.252
REMARK  1 active torsions:
REMARK  status: ('A' for Active; 'I' for Inactive)
REMARK       I    between atoms: C1_1  and  N1_2 
REMARK       I    between atoms: C1_1  and  N3_15 
REMARK    1  A    between atoms: N3_15  and  C12_16 
ROOT
ATOM      1  C1   11 d         -10.170 208.380 115.606  0.00  0.00     0.323 C 
ATOM      2  N1   11 d          -8.820 208.726 115.871  0.00  0.00    -0.331 N 
ATOM      3  C2   11 d          -8.025 209.440 114.835  0.00  0.00     0.155 C 
ATOM      4  C3   11 d          -6.724 208.670 114.613  0.00  0.00     0.255 C 
ATOM      5  N2   11 d          -5.949 208.393 115.882  0.00  0.00    -0.064 N 
ATOM      6  C4   11 d          -5.030 209.539 116.325  0.00  0.00     0.188 C 
ATOM      7  C5   11 d          -3.606 209.091 116.767  0.00  0.00     0.033 C 
ATOM      8  C6   11 d          -3.517 208.659 118.234  0.00  0.00     0.002 C 
ATOM      9  C7   11 d          -4.014 209.769 119.166  0.00  0.00     0.000 C 
ATOM     10  C8   11 d          -5.432 210.231 118.814  0.00  0.00     0.002 C 
ATOM     11  C9   11 d          -5.574 210.597 117.325  0.00  0.00     0.033 C 
ATOM     12  C10  11 d          -6.821 207.724 116.921  0.00  0.00     0.255 C 
ATOM     13  C11  11 d          -8.183 208.391 117.174  0.00  0.00     0.155 C 
ATOM     14  O1   11 d         -11.004 209.304 115.309  0.00  0.00    -0.247 OA
ATOM     15  N3   11 d         -10.574 207.021 115.669  0.00  0.00    -0.308 N 
ATOM     16  H5   11 d          -5.281 207.609 115.574  0.00  0.00     0.280 HD
ATOM     17  H21  11 d          -9.868 206.256 115.925  0.00  0.00     0.170 HD
ENDROOT
BRANCH  15  18
ATOM     18  C12  11 d         -11.955 206.614 115.396  0.00  0.00     0.047 A 
ATOM     19  C13  11 d         -12.463 206.428 114.083  0.00  0.00     0.001 A 
ATOM     20  C14  11 d         -13.826 206.045 113.911  0.00  0.00    -0.024 A 
ATOM     21  C21  11 d         -11.651 206.579 112.937  0.00  0.00     0.014 A 
ATOM     22  C15  11 d         -14.647 205.848 115.038  0.00  0.00     0.012 A 
ATOM     23  C18  11 d         -14.344 205.849 112.617  0.00  0.00     0.012 A 
ATOM     24  C16  11 d         -14.127 206.014 116.327  0.00  0.00     0.003 A 
ATOM     25  C17  11 d         -12.789 206.388 116.504  0.00  0.00     0.030 A 
ATOM     26  C19  11 d         -13.524 206.017 111.495  0.00  0.00     0.001 A 
ATOM     27  C20  11 d         -12.180 206.378 111.654  0.00  0.00     0.001 A 
ENDBRANCH  15  18
TORSDOF 1
ENDMDL
MODEL 8
REMARK VINA RESULT:      -8.5      1.775      2.847
REMARK  1 active torsions:
REMARK  status: ('A' for Active; 'I' for Inactive)
REMARK       I    between atoms: C1_1  and  N1_2 
REMARK       I    between atoms: C1_1  and  N3_15 
REMARK    1  A    between atoms: N3_15  and  C12_16 
ROOT
ATOM      1  C1   11 d         -13.803 205.141 117.185  0.00  0.00     0.323 C 
ATOM      2  N1   11 d         -14.335 204.855 118.468  0.00  0.00    -0.331 N 
ATOM      3  C2   11 d         -14.983 203.539 118.719  0.00  0.00     0.155 C 
ATOM      4  C3   11 d         -16.366 203.790 119.316  0.00  0.00     0.255 C 
ATOM      5  N2   11 d         -16.359 204.698 120.526  0.00  0.00    -0.064 N 
ATOM      6  C4   11 d         -16.072 203.982 121.853  0.00  0.00     0.188 C 
ATOM      7  C5   11 d         -17.007 204.397 123.025  0.00  0.00     0.033 C 
ATOM      8  C6   11 d         -16.543 205.649 123.778  0.00  0.00     0.002 C 
ATOM      9  C7   11 d         -15.114 205.477 124.303  0.00  0.00     0.000 C 
ATOM     10  C8   11 d         -14.128 205.108 123.189  0.00  0.00     0.002 C 
ATOM     11  C9   11 d         -14.606 203.901 122.362  0.00  0.00     0.033 C 
ATOM     12  C10  11 d         -15.635 205.993 120.233  0.00  0.00     0.255 C 
ATOM     13  C11  11 d         -14.254 205.848 119.573  0.00  0.00     0.155 C 
ATOM     14  O1   11 d         -12.902 204.374 116.698  0.00  0.00    -0.247 OA
ATOM     15  N3   11 d         -14.276 206.267 116.461  0.00  0.00    -0.308 N 
ATOM     16  H5   11 d         -17.389 204.998 120.593  0.00  0.00     0.280 HD
ATOM     17  H21  11 d         -15.026 206.907 116.882  0.00  0.00     0.170 HD
ENDROOT
BRANCH  15  18
ATOM     18  C12  11 d         -13.761 206.600 115.130  0.00  0.00     0.047 A 
ATOM     19  C13  11 d         -14.533 206.467 113.945  0.00  0.00     0.001 A 
ATOM     20  C14  11 d         -13.945 206.801 112.690  0.00  0.00    -0.024 A 
ATOM     21  C21  11 d         -15.881 206.044 113.973  0.00  0.00     0.014 A 
ATOM     22  C15  11 d         -12.616 207.263 112.638  0.00  0.00     0.012 A 
ATOM     23  C18  11 d         -14.698 206.683 111.506  0.00  0.00     0.012 A 
ATOM     24  C16  11 d         -11.874 207.409 113.816  0.00  0.00     0.003 A 
ATOM     25  C17  11 d         -12.446 207.086 115.053  0.00  0.00     0.030 A 
ATOM     26  C19  11 d         -16.028 206.249 111.556  0.00  0.00     0.001 A 
ATOM     27  C20  11 d         -16.619 205.934 112.787  0.00  0.00     0.001 A 
ENDBRANCH  15  18
TORSDOF 1
ENDMDL
MODEL 9
REMARK VINA RESULT:      -8.2      4.015      8.058
REMARK  1 active torsions:
REMARK  status: ('A' for Active; 'I' for Inactive)
REMARK       I    between atoms: C1_1  and  N1_2 
REMARK       I    between atoms: C1_1  and  N3_15 
REMARK    1  A    between atoms: N3_15  and  C12_16 
ROOT
ATOM      1  C1   11 d         -10.775 208.390 115.915  0.00  0.00     0.323 C 
ATOM      2  N1   11 d         -11.828 207.860 115.125  0.00  0.00    -0.331 N 
ATOM      3  C2   11 d         -13.183 207.697 115.718  0.00  0.00     0.155 C 
ATOM      4  C3   11 d         -13.642 206.259 115.482  0.00  0.00     0.255 C 
ATOM      5  N2   11 d         -13.558 205.816 114.038  0.00  0.00    -0.064 N 
ATOM      6  C4   11 d         -14.779 206.194 113.189  0.00  0.00     0.188 C 
ATOM      7  C5   11 d         -15.305 205.053 112.270  0.00  0.00     0.033 C 
ATOM      8  C6   11 d         -14.587 204.961 110.919  0.00  0.00     0.002 C 
ATOM      9  C7   11 d         -14.656 206.293 110.167  0.00  0.00     0.000 C 
ATOM     10  C8   11 d         -14.112 207.459 111.000  0.00  0.00     0.002 C 
ATOM     11  C9   11 d         -14.759 207.531 112.396  0.00  0.00     0.033 C 
ATOM     12  C10  11 d         -12.178 206.061 113.470  0.00  0.00     0.255 C 
ATOM     13  C11  11 d         -11.601 207.466 113.708  0.00  0.00     0.155 C 
ATOM     14  O1   11 d         -10.911 209.550 116.437  0.00  0.00    -0.247 OA
ATOM     15  N3   11 d          -9.595 207.628 116.118  0.00  0.00    -0.308 N 
ATOM     16  H5   11 d         -13.606 204.745 114.125  0.00  0.00     0.280 HD
ATOM     17  H21  11 d          -9.490 206.660 115.671  0.00  0.00     0.170 HD
ENDROOT
BRANCH  15  18
ATOM     18  C12  11 d          -8.484 208.131 116.931  0.00  0.00     0.047 A 
ATOM     19  C13  11 d          -7.364 208.808 116.380  0.00  0.00     0.001 A 
ATOM     20  C14  11 d          -6.322 209.250 117.247  0.00  0.00    -0.024 A 
ATOM     21  C21  11 d          -7.264 209.089 115.000  0.00  0.00     0.014 A 
ATOM     22  C15  11 d          -6.416 209.018 118.633  0.00  0.00     0.012 A 
ATOM     23  C18  11 d          -5.208 209.930 116.718  0.00  0.00     0.012 A 
ATOM     24  C16  11 d          -7.534 208.368 119.165  0.00  0.00     0.003 A 
ATOM     25  C17  11 d          -8.565 207.934 118.320  0.00  0.00     0.030 A 
ATOM     26  C19  11 d          -5.124 210.186 115.344  0.00  0.00     0.001 A 
ATOM     27  C20  11 d          -6.151 209.769 114.488  0.00  0.00     0.001 A 
ENDBRANCH  15  18
TORSDOF 1
ENDMDL
MODEL 10
REMARK VINA RESULT:      -8.2      3.892      5.221
REMARK  1 active torsions:
REMARK  status: ('A' for Active; 'I' for Inactive)
REMARK       I    between atoms: C1_1  and  N1_2 
REMARK       I    between atoms: C1_1  and  N3_15 
REMARK    1  A    between atoms: N3_15  and  C12_16 
ROOT
ATOM      1  C1   11 d          -9.930 208.287 115.512  0.00  0.00     0.323 C 
ATOM      2  N1   11 d          -9.127 208.354 116.680  0.00  0.00    -0.331 N 
ATOM      3  C2   11 d          -7.679 208.677 116.560  0.00  0.00     0.155 C 
ATOM      4  C3   11 d          -6.884 207.603 117.300  0.00  0.00     0.255 C 
ATOM      5  N2   11 d          -7.335 207.377 118.726  0.00  0.00    -0.064 N 
ATOM      6  C4   11 d          -6.712 208.339 119.746  0.00  0.00     0.188 C 
ATOM      7  C5   11 d          -6.207 207.659 121.052  0.00  0.00     0.033 C 
ATOM      8  C6   11 d          -7.293 207.477 122.118  0.00  0.00     0.002 C 
ATOM      9  C7   11 d          -7.955 208.814 122.464  0.00  0.00     0.000 C 
ATOM     10  C8   11 d          -8.515 209.522 121.225  0.00  0.00     0.002 C 
ATOM     11  C9   11 d          -7.468 209.650 120.103  0.00  0.00     0.033 C 
ATOM     12  C10  11 d          -8.823 207.115 118.795  0.00  0.00     0.255 C 
ATOM     13  C11  11 d          -9.708 208.111 118.028  0.00  0.00     0.155 C 
ATOM     14  O1   11 d         -10.012 209.313 114.752  0.00  0.00    -0.247 OA
ATOM     15  N3   11 d         -10.625 207.089 115.204  0.00  0.00    -0.308 N 
ATOM     16  H5   11 d          -6.902 206.419 118.953  0.00  0.00     0.280 HD
ATOM     17  H21  11 d         -10.555 206.238 115.852  0.00  0.00     0.170 HD
ENDROOT
BRANCH  15  18
ATOM     18  C12  11 d         -11.462 206.970 114.006  0.00  0.00     0.047 A 
ATOM     19  C13  11 d         -12.847 206.662 114.056  0.00  0.00     0.001 A 
ATOM     20  C14  11 d         -13.580 206.552 112.838  0.00  0.00    -0.024 A 
ATOM     21  C21  11 d         -13.533 206.493 115.279  0.00  0.00     0.014 A 
ATOM     22  C15  11 d         -12.929 206.755 111.606  0.00  0.00     0.012 A 
ATOM     23  C18  11 d         -14.956 206.255 112.869  0.00  0.00     0.012 A 
ATOM     24  C16  11 d         -11.568 207.079 111.573  0.00  0.00     0.003 A 
ATOM     25  C17  11 d         -10.841 207.192 112.765  0.00  0.00     0.030 A 
ATOM     26  C19  11 d         -15.612 206.078 114.093  0.00  0.00     0.001 A 
ATOM     27  C20  11 d         -14.904 206.200 115.295  0.00  0.00     0.001 A 
ENDBRANCH  15  18
TORSDOF 1
ENDMDL
