MODEL 1
REMARK VINA RESULT:      -7.8      0.000      0.000
REMARK  1 active torsions:
REMARK  status: ('A' for Active; 'I' for Inactive)
REMARK       I    between atoms: C1_1  and  N1_2 
REMARK    1  A    between atoms: C9_10  and  S1_11 
ROOT
ATOM      1  C1   11 d         -12.585 206.206 115.111  0.00  0.00     0.221 C 
ATOM      2  N1   11 d         -12.756 206.300 113.688  0.00  0.00    -0.296 N 
ATOM      3  C2   11 d         -11.840 206.938 112.751  0.00  0.00     0.045 A 
ATOM      4  C3   11 d         -12.326 206.798 111.463  0.00  0.00    -0.028 A 
ATOM      5  C4   11 d         -11.649 207.350 110.365  0.00  0.00     0.009 A 
ATOM      6  C5   11 d         -10.442 208.035 110.584  0.00  0.00     0.001 A 
ATOM      7  C6   11 d          -9.931 208.163 111.889  0.00  0.00     0.002 A 
ATOM      8  C7   11 d         -10.626 207.614 112.983  0.00  0.00     0.030 A 
ATOM      9  C8   11 d         -13.610 206.047 111.427  0.00  0.00     0.085 A 
ATOM     10  C9   11 d         -13.920 205.751 112.912  0.00  0.00     0.241 A 
ATOM     11  O4   11 d         -11.529 206.678 115.665  0.00  0.00    -0.273 OA
ATOM     12  C10  11 d         -13.566 205.491 115.993  0.00  0.00     0.117 C 
ENDROOT
BRANCH  10  13
ATOM     13  S1   11 d         -15.545 206.475 113.404  0.00  0.00     0.126 S 
ATOM     14  O1   11 d         -15.403 207.753 114.260  0.00  0.00    -0.594 OA
ATOM     15  O2   11 d         -16.379 205.565 114.331  0.00  0.00    -0.594 OA
ATOM     16  O3   11 d         -16.608 206.934 112.157  0.00  0.00    -0.594 OA
ENDBRANCH  10  13
TORSDOF 1
ENDMDL
MODEL 2
REMARK VINA RESULT:      -7.7      2.330      4.404
REMARK  1 active torsions:
REMARK  status: ('A' for Active; 'I' for Inactive)
REMARK       I    between atoms: C1_1  and  N1_2 
REMARK    1  A    between atoms: C9_10  and  S1_11 
ROOT
ATOM      1  C1   11 d         -11.781 207.048 112.438  0.00  0.00     0.221 C 
ATOM      2  N1   11 d         -13.042 206.611 112.968  0.00  0.00    -0.296 N 
ATOM      3  C2   11 d         -14.312 206.582 112.255  0.00  0.00     0.045 A 
ATOM      4  C3   11 d         -15.295 206.068 113.083  0.00  0.00    -0.028 A 
ATOM      5  C4   11 d         -16.626 205.957 112.652  0.00  0.00     0.009 A 
ATOM      6  C5   11 d         -16.953 206.356 111.345  0.00  0.00     0.001 A 
ATOM      7  C6   11 d         -15.955 206.861 110.491  0.00  0.00     0.002 A 
ATOM      8  C7   11 d         -14.627 206.976 110.939  0.00  0.00     0.030 A 
ATOM      9  C8   11 d         -14.763 205.701 114.423  0.00  0.00     0.085 A 
ATOM     10  C9   11 d         -13.271 206.102 114.364  0.00  0.00     0.241 A 
ATOM     11  O4   11 d         -11.693 207.427 111.216  0.00  0.00    -0.273 OA
ATOM     12  C10  11 d         -10.512 207.003 113.239  0.00  0.00     0.117 C 
ENDROOT
BRANCH  10  13
ATOM     13  S1   11 d         -12.865 207.334 115.677  0.00  0.00     0.126 S 
ATOM     14  O1   11 d         -13.944 207.421 116.778  0.00  0.00    -0.594 OA
ATOM     15  O2   11 d         -12.813 208.792 115.170  0.00  0.00    -0.594 OA
ATOM     16  O3   11 d         -11.416 207.110 116.540  0.00  0.00    -0.594 OA
ENDBRANCH  10  13
TORSDOF 1
ENDMDL
MODEL 3
REMARK VINA RESULT:      -7.5      1.693      2.405
REMARK  1 active torsions:
REMARK  status: ('A' for Active; 'I' for Inactive)
REMARK       I    between atoms: C1_1  and  N1_2 
REMARK    1  A    between atoms: C9_10  and  S1_11 
ROOT
ATOM      1  C1   11 d         -10.820 208.201 115.221  0.00  0.00     0.221 C 
ATOM      2  N1   11 d         -11.537 207.615 114.123  0.00  0.00    -0.296 N 
ATOM      3  C2   11 d         -11.187 207.720 112.712  0.00  0.00     0.045 A 
ATOM      4  C3   11 d         -12.093 206.996 111.957  0.00  0.00    -0.028 A 
ATOM      5  C4   11 d         -12.005 206.953 110.557  0.00  0.00     0.009 A 
ATOM      6  C5   11 d         -10.959 207.643 109.920  0.00  0.00     0.001 A 
ATOM      7  C6   11 d         -10.023 208.365 110.683  0.00  0.00     0.002 A 
ATOM      8  C7   11 d         -10.129 208.408 112.085  0.00  0.00     0.030 A 
ATOM      9  C8   11 d         -13.125 206.335 112.801  0.00  0.00     0.085 A 
ATOM     10  C9   11 d         -12.782 206.781 114.241  0.00  0.00     0.241 A 
ATOM     11  O4   11 d          -9.743 208.863 115.006  0.00  0.00    -0.273 OA
ATOM     12  C10  11 d         -11.235 208.003 116.649  0.00  0.00     0.117 C 
ENDROOT
BRANCH  10  13
ATOM     13  S1   11 d         -14.201 207.676 115.011  0.00  0.00     0.126 S 
ATOM     14  O1   11 d         -15.540 207.428 114.282  0.00  0.00    -0.594 OA
ATOM     15  O2   11 d         -14.083 209.214 114.939  0.00  0.00    -0.594 OA
ATOM     16  O3   11 d         -14.553 207.332 116.640  0.00  0.00    -0.594 OA
ENDBRANCH  10  13
TORSDOF 1
ENDMDL
MODEL 4
REMARK VINA RESULT:      -7.1      1.955      3.299
REMARK  1 active torsions:
REMARK  status: ('A' for Active; 'I' for Inactive)
REMARK       I    between atoms: C1_1  and  N1_2 
REMARK    1  A    between atoms: C9_10  and  S1_11 
ROOT
ATOM      1  C1   11 d         -13.821 207.100 110.775  0.00  0.00     0.221 C 
ATOM      2  N1   11 d         -13.560 207.430 112.148  0.00  0.00    -0.296 N 
ATOM      3  C2   11 d         -12.257 207.720 112.731  0.00  0.00     0.045 A 
ATOM      4  C3   11 d         -12.408 208.027 114.072  0.00  0.00    -0.028 A 
ATOM      5  C4   11 d         -11.301 208.318 114.883  0.00  0.00     0.009 A 
ATOM      6  C5   11 d         -10.018 208.320 114.307  0.00  0.00     0.001 A 
ATOM      7  C6   11 d          -9.858 208.029 112.940  0.00  0.00     0.002 A 
ATOM      8  C7   11 d         -10.977 207.728 112.141  0.00  0.00     0.030 A 
ATOM      9  C8   11 d         -13.832 207.975 114.501  0.00  0.00     0.085 A 
ATOM     10  C9   11 d         -14.597 207.536 113.232  0.00  0.00     0.241 A 
ATOM     11  O4   11 d         -12.862 207.077 109.925  0.00  0.00    -0.273 OA
ATOM     12  C10  11 d         -15.208 206.856 110.256  0.00  0.00     0.117 C 
ENDROOT
BRANCH  10  13
ATOM     13  S1   11 d         -15.521 205.966 113.527  0.00  0.00     0.126 S 
ATOM     14  O1   11 d         -15.610 205.589 115.022  0.00  0.00    -0.594 OA
ATOM     15  O2   11 d         -14.839 204.717 112.928  0.00  0.00    -0.594 OA
ATOM     16  O3   11 d         -17.134 205.893 112.990  0.00  0.00    -0.594 OA
ENDBRANCH  10  13
TORSDOF 1
ENDMDL
MODEL 5
REMARK VINA RESULT:      -7.0      1.490      2.237
REMARK  1 active torsions:
REMARK  status: ('A' for Active; 'I' for Inactive)
REMARK       I    between atoms: C1_1  and  N1_2 
REMARK    1  A    between atoms: C9_10  and  S1_11 
ROOT
ATOM      1  C1   11 d         -11.867 206.831 115.798  0.00  0.00     0.221 C 
ATOM      2  N1   11 d         -11.572 207.097 114.418  0.00  0.00    -0.296 N 
ATOM      3  C2   11 d         -10.544 208.000 113.917  0.00  0.00     0.045 A 
ATOM      4  C3   11 d         -10.537 207.967 112.533  0.00  0.00    -0.028 A 
ATOM      5  C4   11 d          -9.659 208.771 111.790  0.00  0.00     0.009 A 
ATOM      6  C5   11 d          -8.756 209.604 112.473  0.00  0.00     0.001 A 
ATOM      7  C6   11 d          -8.743 209.627 113.880  0.00  0.00     0.002 A 
ATOM      8  C7   11 d          -9.637 208.824 114.612  0.00  0.00     0.030 A 
ATOM      9  C8   11 d         -11.558 207.032 111.989  0.00  0.00     0.085 A 
ATOM     10  C9   11 d         -12.277 206.483 113.242  0.00  0.00     0.241 A 
ATOM     11  O4   11 d         -11.172 207.384 116.723  0.00  0.00    -0.273 OA
ATOM     12  C10  11 d         -12.921 205.850 116.221  0.00  0.00     0.117 C 
ENDROOT
BRANCH  10  13
ATOM     13  S1   11 d         -14.083 206.858 113.184  0.00  0.00     0.126 S 
ATOM     14  O1   11 d         -14.574 207.255 111.775  0.00  0.00    -0.594 OA
ATOM     15  O2   11 d         -14.492 208.091 114.019  0.00  0.00    -0.594 OA
ATOM     16  O3   11 d         -15.156 205.625 113.658  0.00  0.00    -0.594 OA
ENDBRANCH  10  13
TORSDOF 1
ENDMDL
MODEL 6
REMARK VINA RESULT:      -7.0      2.569      4.224
REMARK  1 active torsions:
REMARK  status: ('A' for Active; 'I' for Inactive)
REMARK       I    between atoms: C1_1  and  N1_2 
REMARK    1  A    between atoms: C9_10  and  S1_11 
ROOT
ATOM      1  C1   11 d         -11.967 207.308 112.445  0.00  0.00     0.221 C 
ATOM      2  N1   11 d         -11.159 207.953 113.442  0.00  0.00    -0.296 N 
ATOM      3  C2   11 d          -9.789 208.416 113.272  0.00  0.00     0.045 A 
ATOM      4  C3   11 d          -9.355 209.015 114.441  0.00  0.00    -0.028 A 
ATOM      5  C4   11 d          -8.053 209.524 114.560  0.00  0.00     0.009 A 
ATOM      6  C5   11 d          -7.187 209.441 113.456  0.00  0.00     0.001 A 
ATOM      7  C6   11 d          -7.627 208.851 112.257  0.00  0.00     0.002 A 
ATOM      8  C7   11 d          -8.932 208.335 112.156  0.00  0.00     0.030 A 
ATOM      9  C8   11 d         -10.405 209.011 115.496  0.00  0.00     0.085 A 
ATOM     10  C9   11 d         -11.593 208.266 114.847  0.00  0.00     0.241 A 
ATOM     11  O4   11 d         -11.506 207.126 111.262  0.00  0.00    -0.273 OA
ATOM     12  C10  11 d         -13.389 206.902 112.701  0.00  0.00     0.117 C 
ENDROOT
BRANCH  10  13
ATOM     13  S1   11 d         -12.052 206.773 115.829  0.00  0.00     0.126 S 
ATOM     14  O1   11 d         -11.422 206.759 117.239  0.00  0.00    -0.594 OA
ATOM     15  O2   11 d         -11.525 205.448 115.236  0.00  0.00    -0.594 OA
ATOM     16  O3   11 d         -13.708 206.503 116.119  0.00  0.00    -0.594 OA
ENDBRANCH  10  13
TORSDOF 1
ENDMDL
MODEL 7
REMARK VINA RESULT:      -6.9      1.847      3.547
REMARK  1 active torsions:
REMARK  status: ('A' for Active; 'I' for Inactive)
REMARK       I    between atoms: C1_1  and  N1_2 
REMARK    1  A    between atoms: C9_10  and  S1_11 
ROOT
ATOM      1  C1   11 d         -14.215 206.060 113.761  0.00  0.00     0.221 C 
ATOM      2  N1   11 d         -13.041 206.886 113.802  0.00  0.00    -0.296 N 
ATOM      3  C2   11 d         -12.167 207.197 112.678  0.00  0.00     0.045 A 
ATOM      4  C3   11 d         -11.161 208.050 113.098  0.00  0.00    -0.028 A 
ATOM      5  C4   11 d         -10.160 208.485 112.216  0.00  0.00     0.009 A 
ATOM      6  C5   11 d         -10.201 208.059 110.877  0.00  0.00     0.001 A 
ATOM      7  C6   11 d         -11.232 207.208 110.439  0.00  0.00     0.002 A 
ATOM      8  C7   11 d         -12.224 206.771 111.336  0.00  0.00     0.030 A 
ATOM      9  C8   11 d         -11.281 208.390 114.541  0.00  0.00     0.085 A 
ATOM     10  C9   11 d         -12.508 207.583 115.023  0.00  0.00     0.241 A 
ATOM     11  O4   11 d         -14.601 205.546 112.652  0.00  0.00    -0.273 OA
ATOM     12  C10  11 d         -15.079 205.830 114.966  0.00  0.00     0.117 C 
ENDROOT
BRANCH  10  13
ATOM     13  S1   11 d         -12.045 206.430 116.388  0.00  0.00     0.126 S 
ATOM     14  O1   11 d         -10.714 206.809 117.074  0.00  0.00    -0.594 OA
ATOM     15  O2   11 d         -11.759 204.988 115.919  0.00  0.00    -0.594 OA
ATOM     16  O3   11 d         -13.139 206.269 117.682  0.00  0.00    -0.594 OA
ENDBRANCH  10  13
TORSDOF 1
ENDMDL
MODEL 8
REMARK VINA RESULT:      -6.8      1.965      4.139
REMARK  1 active torsions:
REMARK  status: ('A' for Active; 'I' for Inactive)
REMARK       I    between atoms: C1_1  and  N1_2 
REMARK    1  A    between atoms: C9_10  and  S1_11 
ROOT
ATOM      1  C1   11 d         -11.954 206.852 112.012  0.00  0.00     0.221 C 
ATOM      2  N1   11 d         -13.075 206.764 112.905  0.00  0.00    -0.296 N 
ATOM      3  C2   11 d         -13.044 206.286 114.281  0.00  0.00     0.045 A 
ATOM      4  C3   11 d         -14.310 206.381 114.832  0.00  0.00    -0.028 A 
ATOM      5  C4   11 d         -14.568 205.956 116.144  0.00  0.00     0.009 A 
ATOM      6  C5   11 d         -13.509 205.449 116.915  0.00  0.00     0.001 A 
ATOM      7  C6   11 d         -12.214 205.368 116.369  0.00  0.00     0.002 A 
ATOM      8  C7   11 d         -11.972 205.787 115.048  0.00  0.00     0.030 A 
ATOM      9  C8   11 d         -15.298 206.940 113.870  0.00  0.00     0.085 A 
ATOM     10  C9   11 d         -14.487 207.156 112.572  0.00  0.00     0.241 A 
ATOM     11  O4   11 d         -10.781 206.526 112.417  0.00  0.00    -0.273 OA
ATOM     12  C10  11 d         -12.075 207.399 110.620  0.00  0.00     0.117 C 
ENDROOT
BRANCH  10  13
ATOM     13  S1   11 d         -15.211 206.194 111.173  0.00  0.00     0.126 S 
ATOM     14  O1   11 d         -16.649 205.707 111.454  0.00  0.00    -0.594 OA
ATOM     15  O2   11 d         -14.479 204.866 110.883  0.00  0.00    -0.594 OA
ATOM     16  O3   11 d         -15.331 206.975 109.665  0.00  0.00    -0.594 OA
ENDBRANCH  10  13
TORSDOF 1
ENDMDL
MODEL 9
REMARK VINA RESULT:      -6.7      3.613      5.611
REMARK  1 active torsions:
REMARK  status: ('A' for Active; 'I' for Inactive)
REMARK       I    between atoms: C1_1  and  N1_2 
REMARK    1  A    between atoms: C9_10  and  S1_11 
ROOT
ATOM      1  C1   11 d         -10.644 208.091 115.535  0.00  0.00     0.221 C 
ATOM      2  N1   11 d         -10.187 208.516 114.241  0.00  0.00    -0.296 N 
ATOM      3  C2   11 d         -10.628 207.987 112.957  0.00  0.00     0.045 A 
ATOM      4  C3   11 d          -9.990 208.668 111.934  0.00  0.00    -0.028 A 
ATOM      5  C4   11 d         -10.211 208.336 110.588  0.00  0.00     0.009 A 
ATOM      6  C5   11 d         -11.119 207.307 110.282  0.00  0.00     0.001 A 
ATOM      7  C6   11 d         -11.787 206.625 111.316  0.00  0.00     0.002 A 
ATOM      8  C7   11 d         -11.547 206.961 112.661  0.00  0.00     0.030 A 
ATOM      9  C8   11 d          -9.069 209.718 112.449  0.00  0.00     0.085 A 
ATOM     10  C9   11 d          -9.167 209.590 113.986  0.00  0.00     0.241 A 
ATOM     11  O4   11 d         -11.550 207.190 115.633  0.00  0.00    -0.273 OA
ATOM     12  C10  11 d         -10.160 208.726 116.806  0.00  0.00     0.117 C 
ENDROOT
BRANCH  10  13
ATOM     13  S1   11 d          -7.514 209.231 114.725  0.00  0.00     0.126 S 
ATOM     14  O1   11 d          -6.610 210.480 114.819  0.00  0.00    -0.594 OA
ATOM     15  O2   11 d          -6.646 208.276 113.878  0.00  0.00    -0.594 OA
ATOM     16  O3   11 d          -7.484 208.585 116.299  0.00  0.00    -0.594 OA
ENDBRANCH  10  13
TORSDOF 1
ENDMDL
MODEL 10
REMARK VINA RESULT:      -6.1      2.633      4.161
REMARK  1 active torsions:
REMARK  status: ('A' for Active; 'I' for Inactive)
REMARK       I    between atoms: C1_1  and  N1_2 
REMARK    1  A    between atoms: C9_10  and  S1_11 
ROOT
ATOM      1  C1   11 d         -14.414 205.716 115.952  0.00  0.00     0.221 C 
ATOM      2  N1   11 d         -14.000 206.466 114.799  0.00  0.00    -0.296 N 
ATOM      3  C2   11 d         -14.293 206.140 113.410  0.00  0.00     0.045 A 
ATOM      4  C3   11 d         -13.757 207.113 112.584  0.00  0.00    -0.028 A 
ATOM      5  C4   11 d         -13.868 207.027 111.188  0.00  0.00     0.009 A 
ATOM      6  C5   11 d         -14.561 205.940 110.627  0.00  0.00     0.001 A 
ATOM      7  C6   11 d         -15.127 204.958 111.461  0.00  0.00     0.002 A 
ATOM      8  C7   11 d         -14.998 205.051 112.859  0.00  0.00     0.030 A 
ATOM      9  C8   11 d         -13.063 208.181 113.354  0.00  0.00     0.085 A 
ATOM     10  C9   11 d         -13.187 207.730 114.827  0.00  0.00     0.241 A 
ATOM     11  O4   11 d         -15.142 204.670 115.812  0.00  0.00    -0.273 OA
ATOM     12  C10  11 d         -14.098 206.155 117.352  0.00  0.00     0.117 C 
ENDROOT
BRANCH  10  13
ATOM     13  S1   11 d         -11.522 207.521 115.596  0.00  0.00     0.126 S 
ATOM     14  O1   11 d         -10.389 208.169 114.771  0.00  0.00    -0.594 OA
ATOM     15  O2   11 d         -11.052 206.052 115.678  0.00  0.00    -0.594 OA
ATOM     16  O3   11 d         -11.298 208.148 117.162  0.00  0.00    -0.594 OA
ENDBRANCH  10  13
TORSDOF 1
ENDMDL
