MODEL 1
REMARK VINA RESULT:      -7.3      0.000      0.000
REMARK  3 active torsions:
REMARK  status: ('A' for Active; 'I' for Inactive)
REMARK    1  A    between atoms: C1_1  and  S1_2 
REMARK    2  A    between atoms: S1_2  and  N1_5 
REMARK    3  A    between atoms: N1_5  and  C2_6 
ROOT
ATOM      1  S1   11 d         -13.487 207.268 114.590  0.00  0.00     0.241 S 
ATOM      2  O1   11 d         -13.465 205.827 115.106  0.00  0.00    -0.206 OA
ATOM      3  O2   11 d         -13.865 208.161 115.774  0.00  0.00    -0.206 OA
ENDROOT
BRANCH   1   4
ATOM      4  C1   11 d         -11.856 207.736 113.997  0.00  0.00     0.074 A 
ATOM      5  C7   11 d         -10.923 208.347 114.854  0.00  0.00     0.026 A 
ATOM      6  C8   11 d          -9.653 208.706 114.373  0.00  0.00     0.020 A 
ATOM      7  C9   11 d          -9.311 208.457 113.035  0.00  0.00     0.011 A 
ATOM      8 Br1   11 d          -7.568 208.951 112.375  0.00  0.00    -0.051 Br
ATOM      9  C10  11 d         -10.240 207.849 112.176  0.00  0.00     0.020 A 
ATOM     10  C11  11 d         -11.510 207.489 112.656  0.00  0.00     0.026 A 
ENDBRANCH   1   4
BRANCH   1  11
ATOM     11  N1   11 d         -14.705 207.415 113.325  0.00  0.00    -0.211 NA
ATOM     12  H1   11 d         -15.556 207.900 113.753  0.00  0.00     0.140 HD
BRANCH  11  13
ATOM     13  C2   11 d         -15.092 206.099 112.734  0.00  0.00     0.071 C 
ATOM     14  C3   11 d         -14.653 206.030 111.275  0.00  0.00     0.020 C 
ATOM     15  C4   11 d         -15.750 206.751 110.499  0.00  0.00     0.002 C 
ATOM     16  C5   11 d         -17.023 206.585 111.328  0.00  0.00     0.002 C 
ATOM     17  C6   11 d         -16.604 205.883 112.618  0.00  0.00     0.020 C 
ENDBRANCH  11  13
ENDBRANCH   1  11
TORSDOF 3
ENDMDL
MODEL 2
REMARK VINA RESULT:      -7.0      3.212      6.204
REMARK  3 active torsions:
REMARK  status: ('A' for Active; 'I' for Inactive)
REMARK    1  A    between atoms: C1_1  and  S1_2 
REMARK    2  A    between atoms: S1_2  and  N1_5 
REMARK    3  A    between atoms: N1_5  and  C2_6 
ROOT
ATOM      1  S1   11 d         -10.834 208.145 115.081  0.00  0.00     0.241 S 
ATOM      2  O1   11 d         -11.102 209.550 115.626  0.00  0.00    -0.206 OA
ATOM      3  O2   11 d         -10.958 207.178 116.261  0.00  0.00    -0.206 OA
ENDROOT
BRANCH   1   4
ATOM      4  C1   11 d         -12.063 207.720 113.840  0.00  0.00     0.074 A 
ATOM      5  C7   11 d         -11.691 207.087 112.640  0.00  0.00     0.026 A 
ATOM      6  C8   11 d         -12.664 206.762 111.682  0.00  0.00     0.020 A 
ATOM      7  C9   11 d         -14.013 207.069 111.918  0.00  0.00     0.011 A 
ATOM      8 Br1   11 d         -15.349 206.625 110.601  0.00  0.00    -0.051 Br
ATOM      9  C10  11 d         -14.388 207.703 113.113  0.00  0.00     0.020 A 
ATOM     10  C11  11 d         -13.416 208.027 114.072  0.00  0.00     0.026 A 
ENDBRANCH   1   4
BRANCH   1  11
ATOM     11  N1   11 d          -9.200 208.074 114.427  0.00  0.00    -0.211 NA
ATOM     12  H1   11 d          -8.554 207.742 115.212  0.00  0.00     0.140 HD
BRANCH  11  13
ATOM     13  C2   11 d          -8.734 209.384 113.881  0.00  0.00     0.071 C 
ATOM     14  C3   11 d          -8.718 209.341 112.357  0.00  0.00     0.020 C 
ATOM     15  C4   11 d          -7.397 208.671 111.995  0.00  0.00     0.002 C 
ATOM     16  C5   11 d          -6.444 208.982 113.149  0.00  0.00     0.002 C 
ATOM     17  C6   11 d          -7.274 209.714 114.202  0.00  0.00     0.020 C 
ENDBRANCH  11  13
ENDBRANCH   1  11
TORSDOF 3
ENDMDL
MODEL 3
REMARK VINA RESULT:      -6.9      3.825      4.660
REMARK  3 active torsions:
REMARK  status: ('A' for Active; 'I' for Inactive)
REMARK    1  A    between atoms: C1_1  and  S1_2 
REMARK    2  A    between atoms: S1_2  and  N1_5 
REMARK    3  A    between atoms: N1_5  and  C2_6 
ROOT
ATOM      1  S1   11 d         -12.532 207.088 113.757  0.00  0.00     0.241 S 
ATOM      2  O1   11 d         -11.906 208.336 114.385  0.00  0.00    -0.206 OA
ATOM      3  O2   11 d         -11.404 206.328 113.055  0.00  0.00    -0.206 OA
ENDROOT
BRANCH   1   4
ATOM      4  C1   11 d         -13.239 206.042 115.037  0.00  0.00     0.074 A 
ATOM      5  C7   11 d         -12.446 205.549 116.089  0.00  0.00     0.026 A 
ATOM      6  C8   11 d         -13.015 204.733 117.079  0.00  0.00     0.020 A 
ATOM      7  C9   11 d         -14.379 204.406 117.023  0.00  0.00     0.011 A 
ATOM      8 Br1   11 d         -15.160 203.285 118.384  0.00  0.00    -0.051 Br
ATOM      9  C10  11 d         -15.174 204.895 115.974  0.00  0.00     0.020 A 
ATOM     10  C11  11 d         -14.605 205.711 114.984  0.00  0.00     0.026 A 
ENDBRANCH   1   4
BRANCH   1  11
ATOM     11  N1   11 d         -13.743 207.575 112.574  0.00  0.00    -0.211 NA
ATOM     12  H1   11 d         -14.697 207.535 113.055  0.00  0.00     0.140 HD
BRANCH  11  13
ATOM     13  C2   11 d         -13.737 206.719 111.349  0.00  0.00     0.071 C 
ATOM     14  C3   11 d         -14.741 207.253 110.333  0.00  0.00     0.020 C 
ATOM     15  C4   11 d         -16.087 206.688 110.774  0.00  0.00     0.002 C 
ATOM     16  C5   11 d         -15.769 205.383 111.505  0.00  0.00     0.002 C 
ATOM     17  C6   11 d         -14.246 205.294 111.576  0.00  0.00     0.020 C 
ENDBRANCH  11  13
ENDBRANCH   1  11
TORSDOF 3
ENDMDL
MODEL 4
REMARK VINA RESULT:      -6.5      3.602      4.287
REMARK  3 active torsions:
REMARK  status: ('A' for Active; 'I' for Inactive)
REMARK    1  A    between atoms: C1_1  and  S1_2 
REMARK    2  A    between atoms: S1_2  and  N1_5 
REMARK    3  A    between atoms: N1_5  and  C2_6 
ROOT
ATOM      1  S1   11 d         -12.096 207.086 113.575  0.00  0.00     0.241 S 
ATOM      2  O1   11 d         -11.231 208.349 113.570  0.00  0.00    -0.206 OA
ATOM      3  O2   11 d         -11.220 205.944 113.055  0.00  0.00    -0.206 OA
ENDROOT
BRANCH   1   4
ATOM      4  C1   11 d         -12.625 206.707 115.250  0.00  0.00     0.074 A 
ATOM      5  C7   11 d         -13.563 207.519 115.914  0.00  0.00     0.026 A 
ATOM      6  C8   11 d         -13.964 207.208 117.223  0.00  0.00     0.020 A 
ATOM      7  C9   11 d         -13.430 206.085 117.875  0.00  0.00     0.011 A 
ATOM      8 Br1   11 d         -13.981 205.659 119.672  0.00  0.00    -0.051 Br
ATOM      9  C10  11 d         -12.493 205.274 117.216  0.00  0.00     0.020 A 
ATOM     10  C11  11 d         -12.092 205.584 115.907  0.00  0.00     0.026 A 
ENDBRANCH   1   4
BRANCH   1  11
ATOM     11  N1   11 d         -13.470 207.316 112.496  0.00  0.00    -0.211 NA
ATOM     12  H1   11 d         -14.343 207.413 113.105  0.00  0.00     0.140 HD
BRANCH  11  13
ATOM     13  C2   11 d         -13.634 206.200 111.516  0.00  0.00     0.071 C 
ATOM     14  C3   11 d         -14.231 206.729 110.217  0.00  0.00     0.020 C 
ATOM     15  C4   11 d         -15.734 206.786 110.469  0.00  0.00     0.002 C 
ATOM     16  C5   11 d         -16.021 205.709 111.515  0.00  0.00     0.002 C 
ATOM     17  C6   11 d         -14.663 205.146 111.930  0.00  0.00     0.020 C 
ENDBRANCH  11  13
ENDBRANCH   1  11
TORSDOF 3
ENDMDL
MODEL 5
REMARK VINA RESULT:      -6.5      4.425      7.479
REMARK  3 active torsions:
REMARK  status: ('A' for Active; 'I' for Inactive)
REMARK    1  A    between atoms: C1_1  and  S1_2 
REMARK    2  A    between atoms: S1_2  and  N1_5 
REMARK    3  A    between atoms: N1_5  and  C2_6 
ROOT
ATOM      1  S1   11 d          -8.594 208.750 112.649  0.00  0.00     0.241 S 
ATOM      2  O1   11 d          -7.549 208.404 111.586  0.00  0.00    -0.206 OA
ATOM      3  O2   11 d          -8.853 210.255 112.547  0.00  0.00    -0.206 OA
ENDROOT
BRANCH   1   4
ATOM      4  C1   11 d         -10.125 207.866 112.320  0.00  0.00     0.074 A 
ATOM      5  C7   11 d         -10.648 207.787 111.016  0.00  0.00     0.026 A 
ATOM      6  C8   11 d         -11.844 207.093 110.777  0.00  0.00     0.020 A 
ATOM      7  C9   11 d         -12.524 206.476 111.839  0.00  0.00     0.011 A 
ATOM      8 Br1   11 d         -14.168 205.523 111.511  0.00  0.00    -0.051 Br
ATOM      9  C10  11 d         -12.006 206.554 113.142  0.00  0.00     0.020 A 
ATOM     10  C11  11 d         -10.809 207.248 113.381  0.00  0.00     0.026 A 
ENDBRANCH   1   4
BRANCH   1  11
ATOM     11  N1   11 d          -7.953 208.366 114.245  0.00  0.00    -0.211 NA
ATOM     12  H1   11 d          -8.407 209.037 114.943  0.00  0.00     0.140 HD
BRANCH  11  13
ATOM     13  C2   11 d          -6.464 208.464 114.313  0.00  0.00     0.071 C 
ATOM     14  C3   11 d          -5.977 208.084 115.707  0.00  0.00     0.020 C 
ATOM     15  C4   11 d          -6.143 209.350 116.540  0.00  0.00     0.002 C 
ATOM     16  C5   11 d          -6.025 210.514 115.556  0.00  0.00     0.002 C 
ATOM     17  C6   11 d          -5.921 209.888 114.167  0.00  0.00     0.020 C 
ENDBRANCH  11  13
ENDBRANCH   1  11
TORSDOF 3
ENDMDL
MODEL 6
REMARK VINA RESULT:      -6.2      2.142      2.736
REMARK  3 active torsions:
REMARK  status: ('A' for Active; 'I' for Inactive)
REMARK    1  A    between atoms: C1_1  and  S1_2 
REMARK    2  A    between atoms: S1_2  and  N1_5 
REMARK    3  A    between atoms: N1_5  and  C2_6 
ROOT
ATOM      1  S1   11 d         -14.228 207.729 114.865  0.00  0.00     0.241 S 
ATOM      2  O1   11 d         -15.024 206.520 115.366  0.00  0.00    -0.206 OA
ATOM      3  O2   11 d         -15.035 208.976 115.229  0.00  0.00    -0.206 OA
ENDROOT
BRANCH   1   4
ATOM      4  C1   11 d         -12.632 207.800 115.689  0.00  0.00     0.074 A 
ATOM      5  C7   11 d         -11.531 208.430 115.081  0.00  0.00     0.026 A 
ATOM      6  C8   11 d         -10.292 208.477 115.738  0.00  0.00     0.020 A 
ATOM      7  C9   11 d         -10.146 207.893 117.007  0.00  0.00     0.011 A 
ATOM      8 Br1   11 d          -8.444 207.955 117.909  0.00  0.00    -0.051 Br
ATOM      9  C10  11 d         -11.242 207.261 117.616  0.00  0.00     0.020 A 
ATOM     10  C11  11 d         -12.482 207.215 116.959  0.00  0.00     0.026 A 
ENDBRANCH   1   4
BRANCH   1  11
ATOM     11  N1   11 d         -14.051 207.627 113.116  0.00  0.00    -0.211 NA
ATOM     12  H1   11 d         -14.629 208.418 112.688  0.00  0.00     0.140 HD
BRANCH  11  13
ATOM     13  C2   11 d         -14.480 206.306 112.563  0.00  0.00     0.071 C 
ATOM     14  C3   11 d         -13.631 205.946 111.349  0.00  0.00     0.020 C 
ATOM     15  C4   11 d         -14.272 206.691 110.184  0.00  0.00     0.002 C 
ATOM     16  C5   11 d         -15.748 206.847 110.553  0.00  0.00     0.002 C 
ATOM     17  C6   11 d         -15.892 206.301 111.972  0.00  0.00     0.020 C 
ENDBRANCH  11  13
ENDBRANCH   1  11
TORSDOF 3
ENDMDL
MODEL 7
REMARK VINA RESULT:      -6.2      4.515      5.666
REMARK  3 active torsions:
REMARK  status: ('A' for Active; 'I' for Inactive)
REMARK    1  A    between atoms: C1_1  and  S1_2 
REMARK    2  A    between atoms: S1_2  and  N1_5 
REMARK    3  A    between atoms: N1_5  and  C2_6 
ROOT
ATOM      1  S1   11 d         -13.438 205.774 116.668  0.00  0.00     0.241 S 
ATOM      2  O1   11 d         -12.339 204.708 116.653  0.00  0.00    -0.206 OA
ATOM      3  O2   11 d         -12.808 207.056 117.218  0.00  0.00    -0.206 OA
ENDROOT
BRANCH   1   4
ATOM      4  C1   11 d         -14.025 206.078 114.996  0.00  0.00     0.074 A 
ATOM      5  C7   11 d         -15.380 205.899 114.662  0.00  0.00     0.026 A 
ATOM      6  C8   11 d         -15.821 206.141 113.351  0.00  0.00     0.020 A 
ATOM      7  C9   11 d         -14.911 206.561 112.368  0.00  0.00     0.011 A 
ATOM      8 Br1   11 d         -15.517 206.891 110.568  0.00  0.00    -0.051 Br
ATOM      9  C10  11 d         -13.558 206.738 112.698  0.00  0.00     0.020 A 
ATOM     10  C11  11 d         -13.116 206.497 114.008  0.00  0.00     0.026 A 
ENDBRANCH   1   4
BRANCH   1  11
ATOM     11  N1   11 d         -14.743 205.252 117.730  0.00  0.00    -0.211 NA
ATOM     12  H1   11 d         -14.756 205.912 118.571  0.00  0.00     0.140 HD
BRANCH  11  13
ATOM     13  C2   11 d         -14.597 203.834 118.177  0.00  0.00     0.071 C 
ATOM     14  C3   11 d         -15.252 202.897 117.168  0.00  0.00     0.020 C 
ATOM     15  C4   11 d         -16.734 202.904 117.527  0.00  0.00     0.002 C 
ATOM     16  C5   11 d         -16.797 203.213 119.023  0.00  0.00     0.002 C 
ATOM     17  C6   11 d         -15.362 203.499 119.460  0.00  0.00     0.020 C 
ENDBRANCH  11  13
ENDBRANCH   1  11
TORSDOF 3
ENDMDL
MODEL 8
REMARK VINA RESULT:      -6.2      2.476      3.535
REMARK  3 active torsions:
REMARK  status: ('A' for Active; 'I' for Inactive)
REMARK    1  A    between atoms: C1_1  and  S1_2 
REMARK    2  A    between atoms: S1_2  and  N1_5 
REMARK    3  A    between atoms: N1_5  and  C2_6 
ROOT
ATOM      1  S1   11 d         -13.687 206.466 112.041  0.00  0.00     0.241 S 
ATOM      2  O1   11 d         -14.739 207.578 112.017  0.00  0.00    -0.206 OA
ATOM      3  O2   11 d         -13.851 205.668 110.746  0.00  0.00    -0.206 OA
ENDROOT
BRANCH   1   4
ATOM      4  C1   11 d         -12.037 207.180 112.088  0.00  0.00     0.074 A 
ATOM      5  C7   11 d         -11.377 207.554 110.903  0.00  0.00     0.026 A 
ATOM      6  C8   11 d         -10.089 208.110 110.958  0.00  0.00     0.020 A 
ATOM      7  C9   11 d          -9.454 208.293 112.197  0.00  0.00     0.011 A 
ATOM      8 Br1   11 d          -7.685 209.054 112.273  0.00  0.00    -0.051 Br
ATOM      9  C10  11 d         -10.109 207.918 113.381  0.00  0.00     0.020 A 
ATOM     10  C11  11 d         -11.397 207.364 113.326  0.00  0.00     0.026 A 
ENDBRANCH   1   4
BRANCH   1  11
ATOM     11  N1   11 d         -13.979 205.416 113.425  0.00  0.00    -0.211 NA
ATOM     12  H1   11 d         -14.365 204.492 113.050  0.00  0.00     0.140 HD
BRANCH  11  13
ATOM     13  C2   11 d         -14.919 206.013 114.421  0.00  0.00     0.071 C 
ATOM     14  C3   11 d         -14.220 207.120 115.202  0.00  0.00     0.020 C 
ATOM     15  C4   11 d         -13.446 206.399 116.300  0.00  0.00     0.002 C 
ATOM     16  C5   11 d         -14.216 205.107 116.571  0.00  0.00     0.002 C 
ATOM     17  C6   11 d         -15.340 205.056 115.539  0.00  0.00     0.020 C 
ENDBRANCH  11  13
ENDBRANCH   1  11
TORSDOF 3
ENDMDL
MODEL 9
REMARK VINA RESULT:      -6.1      2.923      4.519
REMARK  3 active torsions:
REMARK  status: ('A' for Active; 'I' for Inactive)
REMARK    1  A    between atoms: C1_1  and  S1_2 
REMARK    2  A    between atoms: S1_2  and  N1_5 
REMARK    3  A    between atoms: N1_5  and  C2_6 
ROOT
ATOM      1  S1   11 d         -14.433 206.699 114.689  0.00  0.00     0.241 S 
ATOM      2  O1   11 d         -15.536 207.645 114.206  0.00  0.00    -0.206 OA
ATOM      3  O2   11 d         -14.765 205.309 114.141  0.00  0.00    -0.206 OA
ENDROOT
BRANCH   1   4
ATOM      4  C1   11 d         -12.842 207.223 114.037  0.00  0.00     0.074 A 
ATOM      5  C7   11 d         -12.448 206.885 112.729  0.00  0.00     0.026 A 
ATOM      6  C8   11 d         -11.202 207.302 112.237  0.00  0.00     0.020 A 
ATOM      7  C9   11 d         -10.342 208.059 113.049  0.00  0.00     0.011 A 
ATOM      8 Br1   11 d          -8.630 208.631 112.373  0.00  0.00    -0.051 Br
ATOM      9  C10  11 d         -10.730 208.396 114.356  0.00  0.00     0.020 A 
ATOM     10  C11  11 d         -11.977 207.980 114.848  0.00  0.00     0.026 A 
ENDBRANCH   1   4
BRANCH   1  11
ATOM     11  N1   11 d         -14.431 206.656 116.450  0.00  0.00    -0.211 NA
ATOM     12  H1   11 d         -13.792 207.443 116.790  0.00  0.00     0.140 HD
BRANCH  11  13
ATOM     13  C2   11 d         -13.984 205.341 117.000  0.00  0.00     0.071 C 
ATOM     14  C3   11 d         -14.151 205.323 118.516  0.00  0.00     0.020 C 
ATOM     15  C4   11 d         -12.909 206.021 119.057  0.00  0.00     0.002 C 
ATOM     16  C5   11 d         -11.814 205.788 118.015  0.00  0.00     0.002 C 
ATOM     17  C6   11 d         -12.485 205.072 116.845  0.00  0.00     0.020 C 
ENDBRANCH  11  13
ENDBRANCH   1  11
TORSDOF 3
ENDMDL
MODEL 10
REMARK VINA RESULT:      -5.8      4.980      7.997
REMARK  3 active torsions:
REMARK  status: ('A' for Active; 'I' for Inactive)
REMARK    1  A    between atoms: C1_1  and  S1_2 
REMARK    2  A    between atoms: S1_2  and  N1_5 
REMARK    3  A    between atoms: N1_5  and  C2_6 
ROOT
ATOM      1  S1   11 d          -7.754 209.142 113.770  0.00  0.00     0.241 S 
ATOM      2  O1   11 d          -7.450 209.481 112.308  0.00  0.00    -0.206 OA
ATOM      3  O2   11 d          -7.501 210.412 114.585  0.00  0.00    -0.206 OA
ENDROOT
BRANCH   1   4
ATOM      4  C1   11 d          -9.479 208.664 113.946  0.00  0.00     0.074 A 
ATOM      5  C7   11 d         -10.164 208.026 112.895  0.00  0.00     0.026 A 
ATOM      6  C8   11 d         -11.510 207.661 113.050  0.00  0.00     0.020 A 
ATOM      7  C9   11 d         -12.179 207.931 114.254  0.00  0.00     0.011 A 
ATOM      8 Br1   11 d         -14.028 207.429 114.466  0.00  0.00    -0.051 Br
ATOM      9  C10  11 d         -11.499 208.568 115.304  0.00  0.00     0.020 A 
ATOM     10  C11  11 d         -10.152 208.934 115.150  0.00  0.00     0.026 A 
ENDBRANCH   1   4
BRANCH   1  11
ATOM     11  N1   11 d          -6.668 207.864 114.311  0.00  0.00    -0.211 NA
ATOM     12  H1   11 d          -7.209 207.256 115.005  0.00  0.00     0.140 HD
BRANCH  11  13
ATOM     13  C2   11 d          -5.418 208.390 114.937  0.00  0.00     0.071 C 
ATOM     14  C3   11 d          -4.420 208.792 113.856  0.00  0.00     0.020 C 
ATOM     15  C4   11 d          -3.727 207.495 113.457  0.00  0.00     0.002 C 
ATOM     16  C5   11 d          -3.789 206.595 114.691  0.00  0.00     0.002 C 
ATOM     17  C6   11 d          -4.623 207.346 115.725  0.00  0.00     0.020 C 
ENDBRANCH  11  13
ENDBRANCH   1  11
TORSDOF 3
ENDMDL
MODEL 11
REMARK VINA RESULT:      -5.7      7.147      8.150
REMARK  3 active torsions:
REMARK  status: ('A' for Active; 'I' for Inactive)
REMARK    1  A    between atoms: C1_1  and  S1_2 
REMARK    2  A    between atoms: S1_2  and  N1_5 
REMARK    3  A    between atoms: N1_5  and  C2_6 
ROOT
ATOM      1  S1   11 d         -16.570 202.732 118.920  0.00  0.00     0.241 S 
ATOM      2  O1   11 d         -16.571 201.695 117.794  0.00  0.00    -0.206 OA
ATOM      3  O2   11 d         -16.348 201.969 120.228  0.00  0.00    -0.206 OA
ENDROOT
BRANCH   1   4
ATOM      4  C1   11 d         -15.221 203.897 118.683  0.00  0.00     0.074 A 
ATOM      5  C7   11 d         -14.540 203.975 117.454  0.00  0.00     0.026 A 
ATOM      6  C8   11 d         -13.489 204.890 117.287  0.00  0.00     0.020 A 
ATOM      7  C9   11 d         -13.114 205.732 118.346  0.00  0.00     0.011 A 
ATOM      8 Br1   11 d         -11.670 206.988 118.117  0.00  0.00    -0.051 Br
ATOM      9  C10  11 d         -13.790 205.656 119.574  0.00  0.00     0.020 A 
ATOM     10  C11  11 d         -14.841 204.740 119.742  0.00  0.00     0.026 A 
ENDBRANCH   1   4
BRANCH   1  11
ATOM     11  N1   11 d         -18.131 203.546 118.966  0.00  0.00    -0.211 NA
ATOM     12  H1   11 d         -17.972 204.562 118.673  0.00  0.00     0.140 HD
BRANCH  11  13
ATOM     13  C2   11 d         -18.781 203.482 120.310  0.00  0.00     0.071 C 
ATOM     14  C3   11 d         -20.279 203.736 120.179  0.00  0.00     0.020 C 
ATOM     15  C4   11 d         -20.419 205.254 120.135  0.00  0.00     0.002 C 
ATOM     16  C5   11 d         -19.220 205.803 120.907  0.00  0.00     0.002 C 
ATOM     17  C6   11 d         -18.355 204.597 121.267  0.00  0.00     0.020 C 
ENDBRANCH  11  13
ENDBRANCH   1  11
TORSDOF 3
ENDMDL
MODEL 12
REMARK VINA RESULT:      -5.6      5.139      6.205
REMARK  3 active torsions:
REMARK  status: ('A' for Active; 'I' for Inactive)
REMARK    1  A    between atoms: C1_1  and  S1_2 
REMARK    2  A    between atoms: S1_2  and  N1_5 
REMARK    3  A    between atoms: N1_5  and  C2_6 
ROOT
ATOM      1  S1   11 d         -12.756 206.349 116.465  0.00  0.00     0.241 S 
ATOM      2  O1   11 d         -13.153 207.822 116.585  0.00  0.00    -0.206 OA
ATOM      3  O2   11 d         -11.307 206.236 116.943  0.00  0.00    -0.206 OA
ENDROOT
BRANCH   1   4
ATOM      4  C1   11 d         -13.804 205.340 117.521  0.00  0.00     0.074 A 
ATOM      5  C7   11 d         -14.484 204.219 117.008  0.00  0.00     0.026 A 
ATOM      6  C8   11 d         -15.298 203.443 117.847  0.00  0.00     0.020 A 
ATOM      7  C9   11 d         -15.439 203.782 119.202  0.00  0.00     0.011 A 
ATOM      8 Br1   11 d         -16.559 202.716 120.353  0.00  0.00    -0.051 Br
ATOM      9  C10  11 d         -14.764 204.900 119.717  0.00  0.00     0.020 A 
ATOM     10  C11  11 d         -13.949 205.677 118.878  0.00  0.00     0.026 A 
ENDBRANCH   1   4
BRANCH   1  11
ATOM     11  N1   11 d         -12.863 205.851 114.778  0.00  0.00    -0.211 NA
ATOM     12  H1   11 d         -11.878 205.898 114.367  0.00  0.00     0.140 HD
BRANCH  11  13
ATOM     13  C2   11 d         -13.806 206.694 113.982  0.00  0.00     0.071 C 
ATOM     14  C3   11 d         -14.973 205.847 113.486  0.00  0.00     0.020 C 
ATOM     15  C4   11 d         -14.456 205.159 112.228  0.00  0.00     0.002 C 
ATOM     16  C5   11 d         -13.382 206.087 111.660  0.00  0.00     0.002 C 
ATOM     17  C6   11 d         -13.220 207.221 112.669  0.00  0.00     0.020 C 
ENDBRANCH  11  13
ENDBRANCH   1  11
TORSDOF 3
ENDMDL
MODEL 13
REMARK VINA RESULT:      -5.6     14.862     17.132
REMARK  3 active torsions:
REMARK  status: ('A' for Active; 'I' for Inactive)
REMARK    1  A    between atoms: C1_1  and  S1_2 
REMARK    2  A    between atoms: S1_2  and  N1_5 
REMARK    3  A    between atoms: N1_5  and  C2_6 
ROOT
ATOM      1  S1   11 d          -8.341 216.837 125.792  0.00  0.00     0.241 S 
ATOM      2  O1   11 d          -7.902 216.875 127.258  0.00  0.00    -0.206 OA
ATOM      3  O2   11 d          -7.201 216.191 125.001  0.00  0.00    -0.206 OA
ENDROOT
BRANCH   1   4
ATOM      4  C1   11 d          -9.822 215.833 125.617  0.00  0.00     0.074 A 
ATOM      5  C7   11 d         -10.686 216.003 124.520  0.00  0.00     0.026 A 
ATOM      6  C8   11 d         -11.838 215.210 124.399  0.00  0.00     0.020 A 
ATOM      7  C9   11 d         -12.133 214.244 125.374  0.00  0.00     0.011 A 
ATOM      8 Br1   11 d         -13.715 213.156 125.209  0.00  0.00    -0.051 Br
ATOM      9  C10  11 d         -11.274 214.073 126.472  0.00  0.00     0.020 A 
ATOM     10  C11  11 d         -10.121 214.865 126.592  0.00  0.00     0.026 A 
ENDBRANCH   1   4
BRANCH   1  11
ATOM     11  N1   11 d          -8.601 218.483 125.218  0.00  0.00    -0.211 NA
ATOM     12  H1   11 d          -8.517 218.468 124.153  0.00  0.00     0.140 HD
BRANCH  11  13
ATOM     13  C2   11 d          -7.640 219.463 125.808  0.00  0.00     0.071 C 
ATOM     14  C3   11 d          -8.144 220.886 125.590  0.00  0.00     0.020 C 
ATOM     15  C4   11 d          -7.709 221.245 124.173  0.00  0.00     0.002 C 
ATOM     16  C5   11 d          -6.457 220.410 123.900  0.00  0.00     0.002 C 
ATOM     17  C6   11 d          -6.277 219.502 125.113  0.00  0.00     0.020 C 
ENDBRANCH  11  13
ENDBRANCH   1  11
TORSDOF 3
ENDMDL
MODEL 14
REMARK VINA RESULT:      -5.6      5.025      7.788
REMARK  3 active torsions:
REMARK  status: ('A' for Active; 'I' for Inactive)
REMARK    1  A    between atoms: C1_1  and  S1_2 
REMARK    2  A    between atoms: S1_2  and  N1_5 
REMARK    3  A    between atoms: N1_5  and  C2_6 
ROOT
ATOM      1  S1   11 d          -7.212 209.086 114.267  0.00  0.00     0.241 S 
ATOM      2  O1   11 d          -6.510 209.012 112.909  0.00  0.00    -0.206 OA
ATOM      3  O2   11 d          -7.095 210.532 114.752  0.00  0.00    -0.206 OA
ENDROOT
BRANCH   1   4
ATOM      4  C1   11 d          -8.951 208.666 114.085  0.00  0.00     0.074 A 
ATOM      5  C7   11 d          -9.853 208.843 115.150  0.00  0.00     0.026 A 
ATOM      6  C8   11 d         -11.207 208.509 114.991  0.00  0.00     0.020 A 
ATOM      7  C9   11 d         -11.666 207.996 113.767  0.00  0.00     0.011 A 
ATOM      8 Br1   11 d         -13.526 207.537 113.549  0.00  0.00    -0.051 Br
ATOM      9  C10  11 d         -10.768 207.816 112.703  0.00  0.00     0.020 A 
ATOM     10  C11  11 d          -9.414 208.151 112.862  0.00  0.00     0.026 A 
ENDBRANCH   1   4
BRANCH   1  11
ATOM     11  N1   11 d          -6.400 208.012 115.403  0.00  0.00    -0.211 NA
ATOM     12  H1   11 d          -6.868 207.054 115.330  0.00  0.00     0.140 HD
BRANCH  11  13
ATOM     13  C2   11 d          -6.444 208.513 116.810  0.00  0.00     0.071 C 
ATOM     14  C3   11 d          -5.085 208.325 117.475  0.00  0.00     0.020 C 
ATOM     15  C4   11 d          -5.072 206.875 117.945  0.00  0.00     0.002 C 
ATOM     16  C5   11 d          -6.535 206.505 118.189  0.00  0.00     0.002 C 
ATOM     17  C6   11 d          -7.360 207.707 117.734  0.00  0.00     0.020 C 
ENDBRANCH  11  13
ENDBRANCH   1  11
TORSDOF 3
ENDMDL
MODEL 15
REMARK VINA RESULT:      -5.5      3.284      4.264
REMARK  3 active torsions:
REMARK  status: ('A' for Active; 'I' for Inactive)
REMARK    1  A    between atoms: C1_1  and  S1_2 
REMARK    2  A    between atoms: S1_2  and  N1_5 
REMARK    3  A    between atoms: N1_5  and  C2_6 
ROOT
ATOM      1  S1   11 d         -14.065 207.920 115.111  0.00  0.00     0.241 S 
ATOM      2  O1   11 d         -15.269 206.987 114.958  0.00  0.00    -0.206 OA
ATOM      3  O2   11 d         -14.616 209.308 115.446  0.00  0.00    -0.206 OA
ENDROOT
BRANCH   1   4
ATOM      4  C1   11 d         -13.019 207.361 116.461  0.00  0.00     0.074 A 
ATOM      5  C7   11 d         -11.655 207.702 116.509  0.00  0.00     0.026 A 
ATOM      6  C8   11 d         -10.853 207.256 117.571  0.00  0.00     0.020 A 
ATOM      7  C9   11 d         -11.409 206.466 118.590  0.00  0.00     0.011 A 
ATOM      8 Br1   11 d         -10.306 205.853 120.047  0.00  0.00    -0.051 Br
ATOM      9  C10  11 d         -12.769 206.121 118.544  0.00  0.00     0.020 A 
ATOM     10  C11  11 d         -13.572 206.568 117.483  0.00  0.00     0.026 A 
ENDBRANCH   1   4
BRANCH   1  11
ATOM     11  N1   11 d         -13.181 207.987 113.589  0.00  0.00    -0.211 NA
ATOM     12  H1   11 d         -13.813 208.464 112.871  0.00  0.00     0.140 HD
BRANCH  11  13
ATOM     13  C2   11 d         -12.757 206.639 113.102  0.00  0.00     0.071 C 
ATOM     14  C3   11 d         -11.372 206.722 112.470  0.00  0.00     0.020 C 
ATOM     15  C4   11 d         -11.618 207.207 111.045  0.00  0.00     0.002 C 
ATOM     16  C5   11 d         -13.025 206.731 110.682  0.00  0.00     0.002 C 
ATOM     17  C6   11 d         -13.600 206.095 111.946  0.00  0.00     0.020 C 
ENDBRANCH  11  13
ENDBRANCH   1  11
TORSDOF 3
ENDMDL
MODEL 16
REMARK VINA RESULT:      -5.5      5.259      6.406
REMARK  3 active torsions:
REMARK  status: ('A' for Active; 'I' for Inactive)
REMARK    1  A    between atoms: C1_1  and  S1_2 
REMARK    2  A    between atoms: S1_2  and  N1_5 
REMARK    3  A    between atoms: N1_5  and  C2_6 
ROOT
ATOM      1  S1   11 d         -13.282 206.268 117.455  0.00  0.00     0.241 S 
ATOM      2  O1   11 d         -11.988 205.520 117.786  0.00  0.00    -0.206 OA
ATOM      3  O2   11 d         -13.037 207.745 117.772  0.00  0.00    -0.206 OA
ENDROOT
BRANCH   1   4
ATOM      4  C1   11 d         -13.663 206.097 115.707  0.00  0.00     0.074 A 
ATOM      5  C7   11 d         -12.647 206.156 114.735  0.00  0.00     0.026 A 
ATOM      6  C8   11 d         -12.963 206.020 113.375  0.00  0.00     0.020 A 
ATOM      7  C9   11 d         -14.296 205.825 112.977  0.00  0.00     0.011 A 
ATOM      8 Br1   11 d         -14.729 205.640 111.108  0.00  0.00    -0.051 Br
ATOM      9  C10  11 d         -15.313 205.768 113.943  0.00  0.00     0.020 A 
ATOM     10  C11  11 d         -14.997 205.903 115.305  0.00  0.00     0.026 A 
ENDBRANCH   1   4
BRANCH   1  11
ATOM     11  N1   11 d         -14.587 205.654 118.467  0.00  0.00    -0.211 NA
ATOM     12  H1   11 d         -15.462 206.226 118.244  0.00  0.00     0.140 HD
BRANCH  11  13
ATOM     13  C2   11 d         -14.273 205.722 119.926  0.00  0.00     0.071 C 
ATOM     14  C3   11 d         -14.827 204.493 120.639  0.00  0.00     0.020 C 
ATOM     15  C4   11 d         -16.295 204.814 120.895  0.00  0.00     0.002 C 
ATOM     16  C5   11 d         -16.375 206.338 120.994  0.00  0.00     0.002 C 
ATOM     17  C6   11 d         -14.978 206.861 120.668  0.00  0.00     0.020 C 
ENDBRANCH  11  13
ENDBRANCH   1  11
TORSDOF 3
ENDMDL
MODEL 17
REMARK VINA RESULT:      -5.5      4.300      6.171
REMARK  3 active torsions:
REMARK  status: ('A' for Active; 'I' for Inactive)
REMARK    1  A    between atoms: C1_1  and  S1_2 
REMARK    2  A    between atoms: S1_2  and  N1_5 
REMARK    3  A    between atoms: N1_5  and  C2_6 
ROOT
ATOM      1  S1   11 d         -12.076 207.018 113.895  0.00  0.00     0.241 S 
ATOM      2  O1   11 d         -12.494 205.881 112.959  0.00  0.00    -0.206 OA
ATOM      3  O2   11 d         -12.820 208.273 113.432  0.00  0.00    -0.206 OA
ENDROOT
BRANCH   1   4
ATOM      4  C1   11 d         -12.561 206.636 115.584  0.00  0.00     0.074 A 
ATOM      5  C7   11 d         -12.195 205.418 116.184  0.00  0.00     0.026 A 
ATOM      6  C8   11 d         -12.583 205.136 117.503  0.00  0.00     0.020 A 
ATOM      7  C9   11 d         -13.339 206.071 118.229  0.00  0.00     0.011 A 
ATOM      8 Br1   11 d         -13.872 205.683 120.041  0.00  0.00    -0.051 Br
ATOM      9  C10  11 d         -13.707 207.287 117.633  0.00  0.00     0.020 A 
ATOM     10  C11  11 d         -13.319 207.569 116.314  0.00  0.00     0.026 A 
ENDBRANCH   1   4
BRANCH   1  11
ATOM     11  N1   11 d         -10.339 207.276 113.761  0.00  0.00    -0.211 NA
ATOM     12  H1   11 d          -9.895 206.959 114.681  0.00  0.00     0.140 HD
BRANCH  11  13
ATOM     13  C2   11 d          -9.982 208.698 113.469  0.00  0.00     0.071 C 
ATOM     14  C3   11 d          -9.385 208.811 112.071  0.00  0.00     0.020 C 
ATOM     15  C4   11 d          -7.918 208.431 112.237  0.00  0.00     0.002 C 
ATOM     16  C5   11 d          -7.556 208.793 113.677  0.00  0.00     0.002 C 
ATOM     17  C6   11 d          -8.852 209.253 114.340  0.00  0.00     0.020 C 
ENDBRANCH  11  13
ENDBRANCH   1  11
TORSDOF 3
ENDMDL
MODEL 18
REMARK VINA RESULT:      -5.3      3.397      6.167
REMARK  3 active torsions:
REMARK  status: ('A' for Active; 'I' for Inactive)
REMARK    1  A    between atoms: C1_1  and  S1_2 
REMARK    2  A    between atoms: S1_2  and  N1_5 
REMARK    3  A    between atoms: N1_5  and  C2_6 
ROOT
ATOM      1  S1   11 d         -13.413 205.324 116.781  0.00  0.00     0.241 S 
ATOM      2  O1   11 d         -14.567 204.906 117.696  0.00  0.00    -0.206 OA
ATOM      3  O2   11 d         -12.467 204.125 116.681  0.00  0.00    -0.206 OA
ENDROOT
BRANCH   1   4
ATOM      4  C1   11 d         -14.038 205.718 115.142  0.00  0.00     0.074 A 
ATOM      5  C7   11 d         -15.420 205.813 114.898  0.00  0.00     0.026 A 
ATOM      6  C8   11 d         -15.890 206.122 113.612  0.00  0.00     0.020 A 
ATOM      7  C9   11 d         -14.981 206.337 112.563  0.00  0.00     0.011 A 
ATOM      8 Br1   11 d         -15.627 206.760 110.796  0.00  0.00    -0.051 Br
ATOM      9  C10  11 d         -13.601 206.241 112.802  0.00  0.00     0.020 A 
ATOM     10  C11  11 d         -13.131 205.933 114.089  0.00  0.00     0.026 A 
ENDBRANCH   1   4
BRANCH   1  11
ATOM     11  N1   11 d         -12.564 206.690 117.498  0.00  0.00    -0.211 NA
ATOM     12  H1   11 d         -12.951 207.580 117.049  0.00  0.00     0.140 HD
BRANCH  11  13
ATOM     13  C2   11 d         -11.083 206.614 117.321  0.00  0.00     0.071 C 
ATOM     14  C3   11 d         -10.379 207.177 118.551  0.00  0.00     0.020 C 
ATOM     15  C4   11 d         -10.369 208.687 118.342  0.00  0.00     0.002 C 
ATOM     16  C5   11 d         -10.389 208.897 116.828  0.00  0.00     0.002 C 
ATOM     17  C6   11 d         -10.536 207.510 116.207  0.00  0.00     0.020 C 
ENDBRANCH  11  13
ENDBRANCH   1  11
TORSDOF 3
ENDMDL
MODEL 19
REMARK VINA RESULT:      -5.3      7.734      9.197
REMARK  3 active torsions:
REMARK  status: ('A' for Active; 'I' for Inactive)
REMARK    1  A    between atoms: C1_1  and  S1_2 
REMARK    2  A    between atoms: S1_2  and  N1_5 
REMARK    3  A    between atoms: N1_5  and  C2_6 
ROOT
ATOM      1  S1   11 d         -14.837 206.148 120.574  0.00  0.00     0.241 S 
ATOM      2  O1   11 d         -14.670 207.254 121.620  0.00  0.00    -0.206 OA
ATOM      3  O2   11 d         -13.665 205.181 120.756  0.00  0.00    -0.206 OA
ENDROOT
BRANCH   1   4
ATOM      4  C1   11 d         -16.378 205.264 120.852  0.00  0.00     0.074 A 
ATOM      5  C7   11 d         -16.479 203.886 120.590  0.00  0.00     0.026 A 
ATOM      6  C8   11 d         -17.690 203.212 120.812  0.00  0.00     0.020 A 
ATOM      7  C9   11 d         -18.806 203.912 121.297  0.00  0.00     0.011 A 
ATOM      8 Br1   11 d         -20.469 202.987 121.602  0.00  0.00    -0.051 Br
ATOM      9  C10  11 d         -18.709 205.288 121.559  0.00  0.00     0.020 A 
ATOM     10  C11  11 d         -17.498 205.962 121.337  0.00  0.00     0.026 A 
ENDBRANCH   1   4
BRANCH   1  11
ATOM     11  N1   11 d         -14.776 206.855 118.962  0.00  0.00    -0.211 NA
ATOM     12  H1   11 d         -15.677 206.581 118.457  0.00  0.00     0.140 HD
BRANCH  11  13
ATOM     13  C2   11 d         -13.581 206.418 118.179  0.00  0.00     0.071 C 
ATOM     14  C3   11 d         -13.167 207.511 117.201  0.00  0.00     0.020 C 
ATOM     15  C4   11 d         -14.080 207.326 115.994  0.00  0.00     0.002 C 
ATOM     16  C5   11 d         -14.448 205.843 115.976  0.00  0.00     0.002 C 
ATOM     17  C6   11 d         -13.843 205.238 117.240  0.00  0.00     0.020 C 
ENDBRANCH  11  13
ENDBRANCH   1  11
TORSDOF 3
ENDMDL
MODEL 20
REMARK VINA RESULT:      -5.2      5.817      6.520
REMARK  3 active torsions:
REMARK  status: ('A' for Active; 'I' for Inactive)
REMARK    1  A    between atoms: C1_1  and  S1_2 
REMARK    2  A    between atoms: S1_2  and  N1_5 
REMARK    3  A    between atoms: N1_5  and  C2_6 
ROOT
ATOM      1  S1   11 d         -13.924 206.180 119.440  0.00  0.00     0.241 S 
ATOM      2  O1   11 d         -12.871 205.686 120.435  0.00  0.00    -0.206 OA
ATOM      3  O2   11 d         -14.458 207.510 119.977  0.00  0.00    -0.206 OA
ENDROOT
BRANCH   1   4
ATOM      4  C1   11 d         -13.170 206.456 117.831  0.00  0.00     0.074 A 
ATOM      5  C7   11 d         -12.150 207.411 117.664  0.00  0.00     0.026 A 
ATOM      6  C8   11 d         -11.573 207.613 116.401  0.00  0.00     0.020 A 
ATOM      7  C9   11 d         -12.012 206.865 115.298  0.00  0.00     0.011 A 
ATOM      8 Br1   11 d         -11.220 207.144 113.563  0.00  0.00    -0.051 Br
ATOM      9  C10  11 d         -13.032 205.913 115.460  0.00  0.00     0.020 A 
ATOM     10  C11  11 d         -13.609 205.709 116.724  0.00  0.00     0.026 A 
ENDBRANCH   1   4
BRANCH   1  11
ATOM     11  N1   11 d         -15.236 205.008 119.349  0.00  0.00    -0.211 NA
ATOM     12  H1   11 d         -16.093 205.515 118.959  0.00  0.00     0.140 HD
BRANCH  11  13
ATOM     13  C2   11 d         -15.550 204.383 120.669  0.00  0.00     0.071 C 
ATOM     14  C3   11 d         -16.271 203.056 120.461  0.00  0.00     0.020 C 
ATOM     15  C4   11 d         -17.733 203.431 120.242  0.00  0.00     0.002 C 
ATOM     16  C5   11 d         -17.938 204.751 120.986  0.00  0.00     0.002 C 
ATOM     17  C6   11 d         -16.564 205.164 121.508  0.00  0.00     0.020 C 
ENDBRANCH  11  13
ENDBRANCH   1  11
TORSDOF 3
ENDMDL
