MODEL 1
REMARK VINA RESULT:      -7.8      0.000      0.000
REMARK  1 active torsions:
REMARK  status: ('A' for Active; 'I' for Inactive)
REMARK    1  A    between atoms: C5_6  and  S1_7 
ROOT
ATOM      1  C1   11 d          -9.765 208.870 114.718  0.00  0.00     0.270 A 
ATOM      2  N1   11 d         -10.261 208.279 113.605  0.00  0.00    -0.198 N 
ATOM      3  C2   11 d         -11.611 207.805 113.367  0.00  0.00     0.062 A 
ATOM      4  C3   11 d         -11.832 206.801 112.399  0.00  0.00     0.033 A 
ATOM      5  C4   11 d         -13.127 206.326 112.139  0.00  0.00     0.028 A 
ATOM      6  C5   11 d         -14.222 206.847 112.841  0.00  0.00     0.080 A 
ATOM      7  C6   11 d         -14.021 207.853 113.795  0.00  0.00     0.028 A 
ATOM      8  C7   11 d         -12.727 208.333 114.056  0.00  0.00     0.033 A 
ATOM      9  N2   11 d          -9.295 208.171 112.731  0.00  0.00    -0.169 NA
ATOM     10  C8   11 d          -8.170 208.732 113.228  0.00  0.00     0.057 A 
ATOM     11  C9   11 d          -8.434 209.147 114.520  0.00  0.00     0.104 A 
ATOM     12  C10  11 d          -6.821 208.647 112.590  0.00  0.00     0.072 C 
ATOM     13  O4   11 d         -10.379 209.068 115.796  0.00  0.00    -0.266 OA
ENDROOT
BRANCH   6  14
ATOM     14  S1   11 d         -15.897 206.243 112.516  0.00  0.00     0.137 S 
ATOM     15  O1   11 d         -15.910 205.027 111.564  0.00  0.00    -0.591 OA
ATOM     16  O2   11 d         -16.777 207.262 111.761  0.00  0.00    -0.591 OA
ATOM     17  O3   11 d         -16.809 205.764 113.868  0.00  0.00    -0.591 OA
ENDBRANCH   6  14
TORSDOF 1
ENDMDL
MODEL 2
REMARK VINA RESULT:      -7.6      3.790      6.435
REMARK  1 active torsions:
REMARK  status: ('A' for Active; 'I' for Inactive)
REMARK    1  A    between atoms: C5_6  and  S1_7 
ROOT
ATOM      1  C1   11 d         -16.196 206.268 112.472  0.00  0.00     0.270 A 
ATOM      2  N1   11 d         -14.976 206.731 112.837  0.00  0.00    -0.198 N 
ATOM      3  C2   11 d         -14.390 206.764 114.163  0.00  0.00     0.062 A 
ATOM      4  C3   11 d         -13.369 207.697 114.446  0.00  0.00     0.033 A 
ATOM      5  C4   11 d         -12.775 207.750 115.716  0.00  0.00     0.028 A 
ATOM      6  C5   11 d         -13.190 206.871 116.725  0.00  0.00     0.080 A 
ATOM      7  C6   11 d         -14.194 205.930 116.456  0.00  0.00     0.028 A 
ATOM      8  C7   11 d         -14.788 205.873 115.185  0.00  0.00     0.033 A 
ATOM      9  N2   11 d         -14.373 207.188 111.771  0.00  0.00    -0.169 NA
ATOM     10  C8   11 d         -15.156 206.987 110.687  0.00  0.00     0.057 A 
ATOM     11  C9   11 d         -16.350 206.440 111.117  0.00  0.00     0.104 A 
ATOM     12  C10  11 d         -14.879 207.531 109.323  0.00  0.00     0.072 C 
ATOM     13  O4   11 d         -17.088 205.826 113.238  0.00  0.00    -0.266 OA
ENDROOT
BRANCH   6  14
ATOM     14  S1   11 d         -12.434 206.929 118.368  0.00  0.00     0.137 S 
ATOM     15  O1   11 d         -11.495 208.143 118.542  0.00  0.00    -0.591 OA
ATOM     16  O2   11 d         -11.489 205.740 118.647  0.00  0.00    -0.591 OA
ATOM     17  O3   11 d         -13.496 206.990 119.694  0.00  0.00    -0.591 OA
ENDBRANCH   6  14
TORSDOF 1
ENDMDL
MODEL 3
REMARK VINA RESULT:      -7.4      3.431      6.763
REMARK  1 active torsions:
REMARK  status: ('A' for Active; 'I' for Inactive)
REMARK    1  A    between atoms: C5_6  and  S1_7 
ROOT
ATOM      1  C1   11 d         -13.687 207.906 113.605  0.00  0.00     0.270 A 
ATOM      2  N1   11 d         -12.509 207.567 113.029  0.00  0.00    -0.198 N 
ATOM      3  C2   11 d         -11.174 208.001 113.395  0.00  0.00     0.062 A 
ATOM      4  C3   11 d         -10.145 207.965 112.429  0.00  0.00     0.033 A 
ATOM      5  C4   11 d          -8.841 208.371 112.752  0.00  0.00     0.028 A 
ATOM      6  C5   11 d          -8.543 208.820 114.045  0.00  0.00     0.080 A 
ATOM      7  C6   11 d          -9.551 208.849 115.019  0.00  0.00     0.028 A 
ATOM      8  C7   11 d         -10.856 208.441 114.700  0.00  0.00     0.033 A 
ATOM      9  N2   11 d         -12.756 206.761 112.030  0.00  0.00    -0.169 NA
ATOM     10  C8   11 d         -14.084 206.516 111.963  0.00  0.00     0.057 A 
ATOM     11  C9   11 d         -14.708 207.276 112.935  0.00  0.00     0.104 A 
ATOM     12  C10  11 d         -14.760 205.783 110.851  0.00  0.00     0.072 C 
ATOM     13  O4   11 d         -13.852 208.725 114.543  0.00  0.00    -0.266 OA
ENDROOT
BRANCH   6  14
ATOM     14  S1   11 d          -6.867 209.347 114.475  0.00  0.00     0.137 S 
ATOM     15  O1   11 d          -6.811 210.823 114.927  0.00  0.00    -0.591 OA
ATOM     16  O2   11 d          -5.897 209.334 113.273  0.00  0.00    -0.591 OA
ATOM     17  O3   11 d          -6.084 208.472 115.704  0.00  0.00    -0.591 OA
ENDBRANCH   6  14
TORSDOF 1
ENDMDL
MODEL 4
REMARK VINA RESULT:      -7.3      1.398      2.052
REMARK  1 active torsions:
REMARK  status: ('A' for Active; 'I' for Inactive)
REMARK    1  A    between atoms: C5_6  and  S1_7 
ROOT
ATOM      1  C1   11 d          -9.282 208.496 112.078  0.00  0.00     0.270 A 
ATOM      2  N1   11 d         -10.200 208.283 113.051  0.00  0.00    -0.198 N 
ATOM      3  C2   11 d         -11.557 207.791 112.911  0.00  0.00     0.062 A 
ATOM      4  C3   11 d         -12.509 208.094 113.909  0.00  0.00     0.033 A 
ATOM      5  C4   11 d         -13.828 207.627 113.808  0.00  0.00     0.028 A 
ATOM      6  C5   11 d         -14.219 206.850 112.709  0.00  0.00     0.080 A 
ATOM      7  C6   11 d         -13.282 206.530 111.717  0.00  0.00     0.028 A 
ATOM      8  C7   11 d         -11.960 206.993 111.817  0.00  0.00     0.033 A 
ATOM      9  N2   11 d          -9.670 208.619 114.198  0.00  0.00    -0.169 NA
ATOM     10  C8   11 d          -8.387 209.005 114.008  0.00  0.00     0.057 A 
ATOM     11  C9   11 d          -8.129 208.979 112.650  0.00  0.00     0.104 A 
ATOM     12  C10  11 d          -7.519 209.621 115.056  0.00  0.00     0.072 C 
ATOM     13  O4   11 d          -9.458 208.361 110.841  0.00  0.00    -0.266 OA
ENDROOT
BRANCH   6  14
ATOM     14  S1   11 d         -15.917 206.242 112.567  0.00  0.00     0.137 S 
ATOM     15  O1   11 d         -16.026 205.007 111.645  0.00  0.00    -0.591 OA
ATOM     16  O2   11 d         -16.869 207.248 111.883  0.00  0.00    -0.591 OA
ATOM     17  O3   11 d         -16.689 205.792 114.012  0.00  0.00    -0.591 OA
ENDBRANCH   6  14
TORSDOF 1
ENDMDL
MODEL 5
REMARK VINA RESULT:      -7.2      3.757      7.223
REMARK  1 active torsions:
REMARK  status: ('A' for Active; 'I' for Inactive)
REMARK    1  A    between atoms: C5_6  and  S1_7 
ROOT
ATOM      1  C1   11 d         -12.194 206.982 111.942  0.00  0.00     0.270 A 
ATOM      2  N1   11 d         -11.833 207.705 113.028  0.00  0.00    -0.198 N 
ATOM      3  C2   11 d         -10.513 208.189 113.386  0.00  0.00     0.062 A 
ATOM      4  C3   11 d         -10.223 208.474 114.738  0.00  0.00     0.033 A 
ATOM      5  C4   11 d          -8.958 208.951 115.117  0.00  0.00     0.028 A 
ATOM      6  C5   11 d          -7.963 209.151 114.151  0.00  0.00     0.080 A 
ATOM      7  C6   11 d          -8.240 208.885 112.803  0.00  0.00     0.028 A 
ATOM      8  C7   11 d          -9.505 208.411 112.420  0.00  0.00     0.033 A 
ATOM      9  N2   11 d         -12.896 207.903 113.763  0.00  0.00    -0.169 NA
ATOM     10  C8   11 d         -13.975 207.365 113.152  0.00  0.00     0.057 A 
ATOM     11  C9   11 d         -13.543 206.728 112.003  0.00  0.00     0.104 A 
ATOM     12  C10  11 d         -15.330 207.241 113.768  0.00  0.00     0.072 C 
ATOM     13  O4   11 d         -11.427 206.535 111.053  0.00  0.00    -0.266 OA
ENDROOT
BRANCH   6  14
ATOM     14  S1   11 d          -6.328 209.764 114.626  0.00  0.00     0.137 S 
ATOM     15  O1   11 d          -5.333 209.764 113.445  0.00  0.00    -0.591 OA
ATOM     16  O2   11 d          -5.615 208.863 115.658  0.00  0.00    -0.591 OA
ATOM     17  O3   11 d          -6.261 211.337 115.268  0.00  0.00    -0.591 OA
ENDBRANCH   6  14
TORSDOF 1
ENDMDL
MODEL 6
REMARK VINA RESULT:      -7.0      3.544      5.401
REMARK  1 active torsions:
REMARK  status: ('A' for Active; 'I' for Inactive)
REMARK    1  A    between atoms: C5_6  and  S1_7 
ROOT
ATOM      1  C1   11 d         -13.933 206.519 111.856  0.00  0.00     0.270 A 
ATOM      2  N1   11 d         -12.973 206.708 112.792  0.00  0.00    -0.198 N 
ATOM      3  C2   11 d         -13.089 206.587 114.233  0.00  0.00     0.062 A 
ATOM      4  C3   11 d         -12.178 207.279 115.061  0.00  0.00     0.033 A 
ATOM      5  C4   11 d         -12.258 207.178 116.459  0.00  0.00     0.028 A 
ATOM      6  C5   11 d         -13.248 206.383 117.052  0.00  0.00     0.080 A 
ATOM      7  C6   11 d         -14.150 205.679 116.243  0.00  0.00     0.028 A 
ATOM      8  C7   11 d         -14.072 205.777 114.844  0.00  0.00     0.033 A 
ATOM      9  N2   11 d         -11.867 207.053 112.185  0.00  0.00    -0.169 NA
ATOM     10  C8   11 d         -12.064 207.044 110.847  0.00  0.00     0.057 A 
ATOM     11  C9   11 d         -13.395 206.750 110.613  0.00  0.00     0.104 A 
ATOM     12  C10  11 d         -11.085 207.549 109.838  0.00  0.00     0.072 C 
ATOM     13  O4   11 d         -15.143 206.257 112.069  0.00  0.00    -0.266 OA
ENDROOT
BRANCH   6  14
ATOM     14  S1   11 d         -13.362 206.244 118.853  0.00  0.00     0.137 S 
ATOM     15  O1   11 d         -14.263 205.071 119.297  0.00  0.00    -0.591 OA
ATOM     16  O2   11 d         -14.051 207.457 119.515  0.00  0.00    -0.591 OA
ATOM     17  O3   11 d         -11.901 206.032 119.695  0.00  0.00    -0.591 OA
ENDBRANCH   6  14
TORSDOF 1
ENDMDL
MODEL 7
REMARK VINA RESULT:      -6.9      3.580      6.574
REMARK  1 active torsions:
REMARK  status: ('A' for Active; 'I' for Inactive)
REMARK    1  A    between atoms: C5_6  and  S1_7 
ROOT
ATOM      1  C1   11 d         -13.698 206.853 111.488  0.00  0.00     0.270 A 
ATOM      2  N1   11 d         -13.982 206.984 112.806  0.00  0.00    -0.198 N 
ATOM      3  C2   11 d         -13.059 207.175 113.908  0.00  0.00     0.062 A 
ATOM      4  C3   11 d         -13.450 206.799 115.212  0.00  0.00     0.033 A 
ATOM      5  C4   11 d         -12.584 206.978 116.301  0.00  0.00     0.028 A 
ATOM      6  C5   11 d         -11.313 207.536 116.107  0.00  0.00     0.080 A 
ATOM      7  C6   11 d         -10.915 207.926 114.821  0.00  0.00     0.028 A 
ATOM      8  C7   11 d         -11.781 207.751 113.729  0.00  0.00     0.033 A 
ATOM      9  N2   11 d         -15.277 206.889 112.959  0.00  0.00    -0.169 NA
ATOM     10  C8   11 d         -15.867 206.750 111.750  0.00  0.00     0.057 A 
ATOM     11  C9   11 d         -14.870 206.678 110.794  0.00  0.00     0.104 A 
ATOM     12  C10  11 d         -17.313 206.440 111.538  0.00  0.00     0.072 C 
ATOM     13  O4   11 d         -12.553 206.813 110.971  0.00  0.00    -0.266 OA
ENDROOT
BRANCH   6  14
ATOM     14  S1   11 d         -10.186 207.771 117.503  0.00  0.00     0.137 S 
ATOM     15  O1   11 d         -10.070 206.509 118.386  0.00  0.00    -0.591 OA
ATOM     16  O2   11 d         -10.676 208.834 118.510  0.00  0.00    -0.591 OA
ATOM     17  O3   11 d          -8.585 208.202 117.126  0.00  0.00    -0.591 OA
ENDBRANCH   6  14
TORSDOF 1
ENDMDL
MODEL 8
REMARK VINA RESULT:      -6.8      4.131      5.564
REMARK  1 active torsions:
REMARK  status: ('A' for Active; 'I' for Inactive)
REMARK    1  A    between atoms: C5_6  and  S1_7 
ROOT
ATOM      1  C1   11 d         -13.042 206.253 113.027  0.00  0.00     0.270 A 
ATOM      2  N1   11 d         -12.476 206.772 114.143  0.00  0.00    -0.198 N 
ATOM      3  C2   11 d         -12.900 206.612 115.521  0.00  0.00     0.062 A 
ATOM      4  C3   11 d         -12.528 207.582 116.477  0.00  0.00     0.033 A 
ATOM      5  C4   11 d         -12.915 207.453 117.819  0.00  0.00     0.028 A 
ATOM      6  C5   11 d         -13.680 206.353 118.230  0.00  0.00     0.080 A 
ATOM      7  C6   11 d         -14.046 205.375 117.295  0.00  0.00     0.028 A 
ATOM      8  C7   11 d         -13.657 205.499 115.952  0.00  0.00     0.033 A 
ATOM      9  N2   11 d         -11.446 207.493 113.786  0.00  0.00    -0.169 NA
ATOM     10  C8   11 d         -11.285 207.419 112.445  0.00  0.00     0.057 A 
ATOM     11  C9   11 d         -12.325 206.666 111.930  0.00  0.00     0.104 A 
ATOM     12  C10  11 d         -10.324 208.246 111.655  0.00  0.00     0.072 C 
ATOM     13  O4   11 d         -14.096 205.572 112.971  0.00  0.00    -0.266 OA
ENDROOT
BRANCH   6  14
ATOM     14  S1   11 d         -14.187 206.176 119.958  0.00  0.00     0.137 S 
ATOM     15  O1   11 d         -13.043 205.657 120.857  0.00  0.00    -0.591 OA
ATOM     16  O2   11 d         -15.280 205.105 120.166  0.00  0.00    -0.591 OA
ATOM     17  O3   11 d         -14.765 207.576 120.730  0.00  0.00    -0.591 OA
ENDBRANCH   6  14
TORSDOF 1
ENDMDL
MODEL 9
REMARK VINA RESULT:      -6.5      3.289      6.307
REMARK  1 active torsions:
REMARK  status: ('A' for Active; 'I' for Inactive)
REMARK    1  A    between atoms: C5_6  and  S1_7 
ROOT
ATOM      1  C1   11 d         -15.250 207.069 113.020  0.00  0.00     0.270 A 
ATOM      2  N1   11 d         -13.898 207.102 113.086  0.00  0.00    -0.198 N 
ATOM      3  C2   11 d         -13.059 207.177 114.267  0.00  0.00     0.062 A 
ATOM      4  C3   11 d         -11.750 207.693 114.154  0.00  0.00     0.033 A 
ATOM      5  C4   11 d         -10.910 207.772 115.275  0.00  0.00     0.028 A 
ATOM      6  C5   11 d         -11.363 207.337 116.528  0.00  0.00     0.080 A 
ATOM      7  C6   11 d         -12.656 206.810 116.653  0.00  0.00     0.028 A 
ATOM      8  C7   11 d         -13.498 206.726 115.532  0.00  0.00     0.033 A 
ATOM      9  N2   11 d         -13.426 207.074 111.867  0.00  0.00    -0.169 NA
ATOM     10  C8   11 d         -14.447 206.968 110.988  0.00  0.00     0.057 A 
ATOM     11  C9   11 d         -15.631 207.010 111.701  0.00  0.00     0.104 A 
ATOM     12  C10  11 d         -14.311 207.082 109.505  0.00  0.00     0.072 C 
ATOM     13  O4   11 d         -16.048 207.160 113.986  0.00  0.00    -0.266 OA
ENDROOT
BRANCH   6  14
ATOM     14  S1   11 d         -10.291 207.434 117.982  0.00  0.00     0.137 S 
ATOM     15  O1   11 d         -10.490 208.745 118.774  0.00  0.00    -0.591 OA
ATOM     16  O2   11 d          -8.788 207.488 117.629  0.00  0.00    -0.591 OA
ATOM     17  O3   11 d         -10.447 206.189 119.128  0.00  0.00    -0.591 OA
ENDBRANCH   6  14
TORSDOF 1
ENDMDL
MODEL 10
REMARK VINA RESULT:      -6.4      3.613      6.714
REMARK  1 active torsions:
REMARK  status: ('A' for Active; 'I' for Inactive)
REMARK    1  A    between atoms: C5_6  and  S1_7 
ROOT
ATOM      1  C1   11 d         -15.086 205.803 113.975  0.00  0.00     0.270 A 
ATOM      2  N1   11 d         -13.929 206.495 113.848  0.00  0.00    -0.198 N 
ATOM      3  C2   11 d         -12.922 206.751 114.861  0.00  0.00     0.062 A 
ATOM      4  C3   11 d         -12.065 207.863 114.718  0.00  0.00     0.033 A 
ATOM      5  C4   11 d         -11.075 208.135 115.675  0.00  0.00     0.028 A 
ATOM      6  C5   11 d         -10.925 207.300 116.790  0.00  0.00     0.080 A 
ATOM      7  C6   11 d         -11.760 206.184 116.939  0.00  0.00     0.028 A 
ATOM      8  C7   11 d         -12.749 205.908 115.982  0.00  0.00     0.033 A 
ATOM      9  N2   11 d         -13.848 206.942 112.622  0.00  0.00    -0.169 NA
ATOM     10  C8   11 d         -14.915 206.510 111.912  0.00  0.00     0.057 A 
ATOM     11  C9   11 d         -15.748 205.816 112.770  0.00  0.00     0.104 A 
ATOM     12  C10  11 d         -15.255 206.960 110.529  0.00  0.00     0.072 C 
ATOM     13  O4   11 d         -15.542 205.294 115.029  0.00  0.00    -0.266 OA
ENDROOT
BRANCH   6  14
ATOM     14  S1   11 d          -9.654 207.639 118.033  0.00  0.00     0.137 S 
ATOM     15  O1   11 d          -8.288 207.982 117.399  0.00  0.00    -0.591 OA
ATOM     16  O2   11 d          -9.313 206.413 118.908  0.00  0.00    -0.591 OA
ATOM     17  O3   11 d          -9.973 208.904 119.123  0.00  0.00    -0.591 OA
ENDBRANCH   6  14
TORSDOF 1
ENDMDL
MODEL 11
REMARK VINA RESULT:      -6.1      2.326      2.894
REMARK  1 active torsions:
REMARK  status: ('A' for Active; 'I' for Inactive)
REMARK    1  A    between atoms: C5_6  and  S1_7 
ROOT
ATOM      1  C1   11 d          -7.305 208.870 116.156  0.00  0.00     0.270 A 
ATOM      2  N1   11 d          -7.996 208.976 114.995  0.00  0.00    -0.198 N 
ATOM      3  C2   11 d          -9.367 208.586 114.729  0.00  0.00     0.062 A 
ATOM      4  C3   11 d          -9.761 208.303 113.403  0.00  0.00     0.033 A 
ATOM      5  C4   11 d         -11.082 207.930 113.110  0.00  0.00     0.028 A 
ATOM      6  C5   11 d         -12.032 207.835 114.136  0.00  0.00     0.080 A 
ATOM      7  C6   11 d         -11.659 208.126 115.456  0.00  0.00     0.028 A 
ATOM      8  C7   11 d         -10.339 208.502 115.752  0.00  0.00     0.033 A 
ATOM      9  N2   11 d          -7.205 209.491 114.091  0.00  0.00    -0.169 NA
ATOM     10  C8   11 d          -6.007 209.780 114.649  0.00  0.00     0.057 A 
ATOM     11  C9   11 d          -6.032 209.348 115.962  0.00  0.00     0.104 A 
ATOM     12  C10  11 d          -4.797 210.218 113.890  0.00  0.00     0.072 C 
ATOM     13  O4   11 d          -7.713 208.348 117.223  0.00  0.00    -0.266 OA
ENDROOT
BRANCH   6  14
ATOM     14  S1   11 d         -13.738 207.355 113.772  0.00  0.00     0.137 S 
ATOM     15  O1   11 d         -14.135 207.655 112.310  0.00  0.00    -0.591 OA
ATOM     16  O2   11 d         -14.783 208.165 114.570  0.00  0.00    -0.591 OA
ATOM     17  O3   11 d         -14.139 205.722 114.020  0.00  0.00    -0.591 OA
ENDBRANCH   6  14
TORSDOF 1
ENDMDL
MODEL 12
REMARK VINA RESULT:      -6.0      4.849      7.384
REMARK  1 active torsions:
REMARK  status: ('A' for Active; 'I' for Inactive)
REMARK    1  A    between atoms: C5_6  and  S1_7 
ROOT
ATOM      1  C1   11 d         -12.462 207.474 117.441  0.00  0.00     0.270 A 
ATOM      2  N1   11 d         -11.842 207.636 116.248  0.00  0.00    -0.198 N 
ATOM      3  C2   11 d         -10.507 208.143 115.993  0.00  0.00     0.062 A 
ATOM      4  C3   11 d         -10.209 208.703 114.731  0.00  0.00     0.033 A 
ATOM      5  C4   11 d          -8.926 209.196 114.449  0.00  0.00     0.028 A 
ATOM      6  C5   11 d          -7.918 209.136 115.422  0.00  0.00     0.080 A 
ATOM      7  C6   11 d          -8.195 208.570 116.674  0.00  0.00     0.028 A 
ATOM      8  C7   11 d          -9.477 208.074 116.959  0.00  0.00     0.033 A 
ATOM      9  N2   11 d         -12.666 207.269 115.302  0.00  0.00    -0.169 NA
ATOM     10  C8   11 d         -13.813 206.812 115.854  0.00  0.00     0.057 A 
ATOM     11  C9   11 d         -13.725 206.977 117.224  0.00  0.00     0.104 A 
ATOM     12  C10  11 d         -15.050 206.470 115.089  0.00  0.00     0.072 C 
ATOM     13  O4   11 d         -12.010 207.795 118.569  0.00  0.00    -0.266 OA
ENDROOT
BRANCH   6  14
ATOM     14  S1   11 d          -6.260 209.768 115.071  0.00  0.00     0.137 S 
ATOM     15  O1   11 d          -6.163 211.299 115.249  0.00  0.00    -0.591 OA
ATOM     16  O2   11 d          -5.834 209.580 113.598  0.00  0.00    -0.591 OA
ATOM     17  O3   11 d          -4.988 209.127 116.000  0.00  0.00    -0.591 OA
ENDBRANCH   6  14
TORSDOF 1
ENDMDL
MODEL 13
REMARK VINA RESULT:      -5.9      4.368      6.548
REMARK  1 active torsions:
REMARK  status: ('A' for Active; 'I' for Inactive)
REMARK    1  A    between atoms: C5_6  and  S1_7 
ROOT
ATOM      1  C1   11 d         -13.226 205.326 117.554  0.00  0.00     0.270 A 
ATOM      2  N1   11 d         -12.871 206.602 117.268  0.00  0.00    -0.198 N 
ATOM      3  C2   11 d         -12.039 207.079 116.180  0.00  0.00     0.062 A 
ATOM      4  C3   11 d         -11.376 208.319 116.308  0.00  0.00     0.033 A 
ATOM      5  C4   11 d         -10.570 208.813 115.271  0.00  0.00     0.028 A 
ATOM      6  C5   11 d         -10.413 208.078 114.089  0.00  0.00     0.080 A 
ATOM      7  C6   11 d         -11.076 206.851 113.942  0.00  0.00     0.028 A 
ATOM      8  C7   11 d         -11.885 206.355 114.976  0.00  0.00     0.033 A 
ATOM      9  N2   11 d         -13.396 207.388 118.171  0.00  0.00    -0.169 NA
ATOM     10  C8   11 d         -14.144 206.656 119.028  0.00  0.00     0.057 A 
ATOM     11  C9   11 d         -14.013 205.324 118.680  0.00  0.00     0.104 A 
ATOM     12  C10  11 d         -14.754 207.179 120.287  0.00  0.00     0.072 C 
ATOM     13  O4   11 d         -12.844 204.292 116.952  0.00  0.00    -0.266 OA
ENDROOT
BRANCH   6  14
ATOM     14  S1   11 d          -9.376 208.703 112.745  0.00  0.00     0.137 S 
ATOM     15  O1   11 d          -7.972 208.059 112.735  0.00  0.00    -0.591 OA
ATOM     16  O2   11 d          -9.048 210.206 112.876  0.00  0.00    -0.591 OA
ATOM     17  O3   11 d          -9.972 208.501 111.165  0.00  0.00    -0.591 OA
ENDBRANCH   6  14
TORSDOF 1
ENDMDL
MODEL 14
REMARK VINA RESULT:      -5.9      4.272      7.525
REMARK  1 active torsions:
REMARK  status: ('A' for Active; 'I' for Inactive)
REMARK    1  A    between atoms: C5_6  and  S1_7 
ROOT
ATOM      1  C1   11 d         -13.042 207.399 116.014  0.00  0.00     0.270 A 
ATOM      2  N1   11 d         -11.965 207.759 116.753  0.00  0.00    -0.198 N 
ATOM      3  C2   11 d         -10.667 208.208 116.286  0.00  0.00     0.062 A 
ATOM      4  C3   11 d          -9.542 208.064 117.127  0.00  0.00     0.033 A 
ATOM      5  C4   11 d          -8.273 208.494 116.709  0.00  0.00     0.028 A 
ATOM      6  C5   11 d          -8.108 209.077 115.445  0.00  0.00     0.080 A 
ATOM      7  C6   11 d          -9.218 209.240 114.605  0.00  0.00     0.028 A 
ATOM      8  C7   11 d         -10.489 208.812 115.021  0.00  0.00     0.033 A 
ATOM      9  N2   11 d         -12.268 207.621 118.017  0.00  0.00    -0.169 NA
ATOM     10  C8   11 d         -13.555 207.223 118.133  0.00  0.00     0.057 A 
ATOM     11  C9   11 d         -14.059 207.029 116.860  0.00  0.00     0.104 A 
ATOM     12  C10  11 d         -14.203 206.795 119.409  0.00  0.00     0.072 C 
ATOM     13  O4   11 d         -13.099 207.328 114.761  0.00  0.00    -0.266 OA
ENDROOT
BRANCH   6  14
ATOM     14  S1   11 d          -6.477 209.636 114.894  0.00  0.00     0.137 S 
ATOM     15  O1   11 d          -6.253 211.143 115.151  0.00  0.00    -0.591 OA
ATOM     16  O2   11 d          -6.281 209.530 113.366  0.00  0.00    -0.591 OA
ATOM     17  O3   11 d          -5.132 208.858 115.583  0.00  0.00    -0.591 OA
ENDBRANCH   6  14
TORSDOF 1
ENDMDL
MODEL 15
REMARK VINA RESULT:      -5.8      5.738      7.697
REMARK  1 active torsions:
REMARK  status: ('A' for Active; 'I' for Inactive)
REMARK    1  A    between atoms: C5_6  and  S1_7 
ROOT
ATOM      1  C1   11 d         -15.842 203.119 118.370  0.00  0.00     0.270 A 
ATOM      2  N1   11 d         -14.940 204.123 118.482  0.00  0.00    -0.198 N 
ATOM      3  C2   11 d         -14.243 204.825 117.421  0.00  0.00     0.062 A 
ATOM      4  C3   11 d         -13.017 205.464 117.703  0.00  0.00     0.033 A 
ATOM      5  C4   11 d         -12.321 206.159 116.701  0.00  0.00     0.028 A 
ATOM      6  C5   11 d         -12.840 206.226 115.401  0.00  0.00     0.080 A 
ATOM      7  C6   11 d         -14.063 205.608 115.109  0.00  0.00     0.028 A 
ATOM      8  C7   11 d         -14.763 204.915 116.109  0.00  0.00     0.033 A 
ATOM      9  N2   11 d         -14.759 204.374 119.752  0.00  0.00    -0.169 NA
ATOM     10  C8   11 d         -15.571 203.584 120.490  0.00  0.00     0.057 A 
ATOM     11  C9   11 d         -16.242 202.737 119.628  0.00  0.00     0.104 A 
ATOM     12  C10  11 d         -15.520 203.463 121.978  0.00  0.00     0.072 C 
ATOM     13  O4   11 d         -16.207 202.556 117.307  0.00  0.00    -0.266 OA
ENDROOT
BRANCH   6  14
ATOM     14  S1   11 d         -11.953 207.117 114.100  0.00  0.00     0.137 S 
ATOM     15  O1   11 d         -12.904 207.695 113.028  0.00  0.00    -0.591 OA
ATOM     16  O2   11 d         -11.026 206.210 113.262  0.00  0.00    -0.591 OA
ATOM     17  O3   11 d         -10.987 208.426 114.594  0.00  0.00    -0.591 OA
ENDBRANCH   6  14
TORSDOF 1
ENDMDL
MODEL 16
REMARK VINA RESULT:      -5.6      4.864      6.384
REMARK  1 active torsions:
REMARK  status: ('A' for Active; 'I' for Inactive)
REMARK    1  A    between atoms: C5_6  and  S1_7 
ROOT
ATOM      1  C1   11 d         -15.107 204.028 118.489  0.00  0.00     0.270 A 
ATOM      2  N1   11 d         -14.304 204.988 117.971  0.00  0.00    -0.198 N 
ATOM      3  C2   11 d         -14.132 205.357 116.579  0.00  0.00     0.062 A 
ATOM      4  C3   11 d         -12.939 205.997 116.176  0.00  0.00     0.033 A 
ATOM      5  C4   11 d         -12.744 206.374 114.838  0.00  0.00     0.028 A 
ATOM      6  C5   11 d         -13.736 206.119 113.882  0.00  0.00     0.080 A 
ATOM      7  C6   11 d         -14.930 205.496 114.269  0.00  0.00     0.028 A 
ATOM      8  C7   11 d         -15.130 205.120 115.607  0.00  0.00     0.033 A 
ATOM      9  N2   11 d         -13.655 205.556 118.953  0.00  0.00    -0.169 NA
ATOM     10  C8   11 d         -14.055 205.022 120.129  0.00  0.00     0.057 A 
ATOM     11  C9   11 d         -14.952 204.007 119.855  0.00  0.00     0.104 A 
ATOM     12  C10  11 d         -13.414 205.295 121.451  0.00  0.00     0.072 C 
ATOM     13  O4   11 d         -15.821 203.221 117.843  0.00  0.00    -0.266 OA
ENDROOT
BRANCH   6  14
ATOM     14  S1   11 d         -13.496 206.599 112.154  0.00  0.00     0.137 S 
ATOM     15  O1   11 d         -13.514 205.387 111.197  0.00  0.00    -0.591 OA
ATOM     16  O2   11 d         -12.107 207.215 111.879  0.00  0.00    -0.591 OA
ATOM     17  O3   11 d         -14.620 207.698 111.505  0.00  0.00    -0.591 OA
ENDBRANCH   6  14
TORSDOF 1
ENDMDL
MODEL 17
REMARK VINA RESULT:      -5.4      6.282      9.820
REMARK  1 active torsions:
REMARK  status: ('A' for Active; 'I' for Inactive)
REMARK    1  A    between atoms: C5_6  and  S1_7 
ROOT
ATOM      1  C1   11 d          -7.631 208.578 112.681  0.00  0.00     0.270 A 
ATOM      2  N1   11 d          -6.899 208.523 113.819  0.00  0.00    -0.198 N 
ATOM      3  C2   11 d          -5.482 208.248 113.961  0.00  0.00     0.062 A 
ATOM      4  C3   11 d          -4.995 207.745 115.187  0.00  0.00     0.033 A 
ATOM      5  C4   11 d          -3.628 207.476 115.360  0.00  0.00     0.028 A 
ATOM      6  C5   11 d          -2.726 207.705 114.312  0.00  0.00     0.080 A 
ATOM      7  C6   11 d          -3.194 208.216 113.094  0.00  0.00     0.028 A 
ATOM      8  C7   11 d          -4.560 208.489 112.918  0.00  0.00     0.033 A 
ATOM      9  N2   11 d          -7.695 208.746 114.832  0.00  0.00    -0.169 NA
ATOM     10  C8   11 d          -8.943 209.003 114.379  0.00  0.00     0.057 A 
ATOM     11  C9   11 d          -8.938 208.855 113.004  0.00  0.00     0.104 A 
ATOM     12  C10  11 d         -10.154 209.132 115.244  0.00  0.00     0.072 C 
ATOM     13  O4   11 d          -7.224 208.338 111.517  0.00  0.00    -0.266 OA
ENDROOT
BRANCH   6  14
ATOM     14  S1   11 d          -0.962 207.360 114.522  0.00  0.00     0.137 S 
ATOM     15  O1   11 d          -0.236 208.468 115.316  0.00  0.00    -0.591 OA
ATOM     16  O2   11 d          -0.181 207.345 113.190  0.00  0.00    -0.591 OA
ATOM     17  O3   11 d          -0.557 205.908 115.306  0.00  0.00    -0.591 OA
ENDBRANCH   6  14
TORSDOF 1
ENDMDL
MODEL 18
REMARK VINA RESULT:      -5.4      5.787      7.466
REMARK  1 active torsions:
REMARK  status: ('A' for Active; 'I' for Inactive)
REMARK    1  A    between atoms: C5_6  and  S1_7 
ROOT
ATOM      1  C1   11 d         -14.870 204.462 119.842  0.00  0.00     0.270 A 
ATOM      2  N1   11 d         -14.154 205.577 119.561  0.00  0.00    -0.198 N 
ATOM      3  C2   11 d         -13.601 205.990 118.285  0.00  0.00     0.062 A 
ATOM      4  C3   11 d         -12.500 206.874 118.261  0.00  0.00     0.033 A 
ATOM      5  C4   11 d         -11.946 207.299 117.043  0.00  0.00     0.028 A 
ATOM      6  C5   11 d         -12.482 206.848 115.830  0.00  0.00     0.080 A 
ATOM      7  C6   11 d         -13.583 205.980 115.837  0.00  0.00     0.028 A 
ATOM      8  C7   11 d         -14.142 205.555 117.053  0.00  0.00     0.033 A 
ATOM      9  N2   11 d         -14.006 206.261 120.665  0.00  0.00    -0.169 NA
ATOM     10  C8   11 d         -14.661 205.641 121.672  0.00  0.00     0.057 A 
ATOM     11  C9   11 d         -15.185 204.460 121.179  0.00  0.00     0.104 A 
ATOM     12  C10  11 d         -14.575 206.031 123.112  0.00  0.00     0.072 C 
ATOM     13  O4   11 d         -15.143 203.529 119.047  0.00  0.00    -0.266 OA
ENDROOT
BRANCH   6  14
ATOM     14  S1   11 d         -11.777 207.386 114.253  0.00  0.00     0.137 S 
ATOM     15  O1   11 d         -10.731 208.510 114.429  0.00  0.00    -0.591 OA
ATOM     16  O2   11 d         -12.812 208.044 113.314  0.00  0.00    -0.591 OA
ATOM     17  O3   11 d         -11.003 206.196 113.318  0.00  0.00    -0.591 OA
ENDBRANCH   6  14
TORSDOF 1
ENDMDL
MODEL 19
REMARK VINA RESULT:      -5.3      4.945      7.855
REMARK  1 active torsions:
REMARK  status: ('A' for Active; 'I' for Inactive)
REMARK    1  A    between atoms: C5_6  and  S1_7 
ROOT
ATOM      1  C1   11 d         -14.060 205.292 116.778  0.00  0.00     0.270 A 
ATOM      2  N1   11 d         -13.051 206.130 116.439  0.00  0.00    -0.198 N 
ATOM      3  C2   11 d         -11.972 206.619 117.277  0.00  0.00     0.062 A 
ATOM      4  C3   11 d         -11.325 207.826 116.936  0.00  0.00     0.033 A 
ATOM      5  C4   11 d         -10.273 208.324 117.721  0.00  0.00     0.028 A 
ATOM      6  C5   11 d          -9.850 207.623 118.858  0.00  0.00     0.080 A 
ATOM      7  C6   11 d         -10.474 206.416 119.202  0.00  0.00     0.028 A 
ATOM      8  C7   11 d         -11.525 205.914 118.417  0.00  0.00     0.033 A 
ATOM      9  N2   11 d         -13.202 206.471 115.186  0.00  0.00    -0.169 NA
ATOM     10  C8   11 d         -14.272 205.827 114.668  0.00  0.00     0.057 A 
ATOM     11  C9   11 d         -14.867 205.101 115.682  0.00  0.00     0.104 A 
ATOM     12  C10  11 d         -14.857 206.096 113.320  0.00  0.00     0.072 C 
ATOM     13  O4   11 d         -14.289 204.820 117.920  0.00  0.00    -0.266 OA
ENDROOT
BRANCH   6  14
ATOM     14  S1   11 d          -8.495 208.253 119.879  0.00  0.00     0.137 S 
ATOM     15  O1   11 d          -8.933 209.434 120.774  0.00  0.00    -0.591 OA
ATOM     16  O2   11 d          -7.347 208.874 119.053  0.00  0.00    -0.591 OA
ATOM     17  O3   11 d          -7.754 207.143 120.931  0.00  0.00    -0.591 OA
ENDBRANCH   6  14
TORSDOF 1
ENDMDL
MODEL 20
REMARK VINA RESULT:      -5.2      5.926      7.847
REMARK  1 active torsions:
REMARK  status: ('A' for Active; 'I' for Inactive)
REMARK    1  A    between atoms: C5_6  and  S1_7 
ROOT
ATOM      1  C1   11 d          -1.679 208.467 112.577  0.00  0.00     0.270 A 
ATOM      2  N1   11 d          -2.832 208.567 111.874  0.00  0.00    -0.198 N 
ATOM      3  C2   11 d          -4.187 208.665 112.384  0.00  0.00     0.062 A 
ATOM      4  C3   11 d          -5.265 208.267 111.563  0.00  0.00     0.033 A 
ATOM      5  C4   11 d          -6.588 208.357 112.023  0.00  0.00     0.028 A 
ATOM      6  C5   11 d          -6.856 208.847 113.308  0.00  0.00     0.080 A 
ATOM      7  C6   11 d          -5.797 209.258 114.129  0.00  0.00     0.028 A 
ATOM      8  C7   11 d          -4.472 209.172 113.671  0.00  0.00     0.033 A 
ATOM      9  N2   11 d          -2.542 208.542 110.600  0.00  0.00    -0.169 NA
ATOM     10  C8   11 d          -1.201 208.480 110.442  0.00  0.00     0.057 A 
ATOM     11  C9   11 d          -0.627 208.384 111.697  0.00  0.00     0.104 A 
ATOM     12  C10  11 d          -0.505 208.262 109.139  0.00  0.00     0.072 C 
ATOM     13  O4   11 d          -1.569 208.379 113.825  0.00  0.00    -0.266 OA
ENDROOT
BRANCH   6  14
ATOM     14  S1   11 d          -8.557 208.967 113.914  0.00  0.00     0.137 S 
ATOM     15  O1   11 d          -9.496 207.942 113.240  0.00  0.00    -0.591 OA
ATOM     16  O2   11 d          -9.234 210.311 113.568  0.00  0.00    -0.591 OA
ATOM     17  O3   11 d          -8.788 208.755 115.584  0.00  0.00    -0.591 OA
ENDBRANCH   6  14
TORSDOF 1
ENDMDL
