MODEL 1
REMARK VINA RESULT:      -7.9      0.000      0.000
REMARK  0 active torsions:
REMARK  status: ('A' for Active; 'I' for Inactive)
ROOT
ATOM      1  C1   11 d         -13.014 206.896 111.268  0.00  0.00     0.136 A 
ATOM      2  N1   11 d         -12.897 207.145 112.606  0.00  0.00    -0.341 N 
ATOM      3  C2   11 d         -11.664 207.644 112.816  0.00  0.00     0.062 A 
ATOM      4  C3   11 d         -11.015 207.688 111.603  0.00  0.00     0.086 A 
ATOM      5  C4   11 d          -9.698 208.143 111.491  0.00  0.00     0.040 A 
ATOM      6  C5   11 d          -9.025 208.546 112.668  0.00  0.00    -0.060 A 
ATOM      7  C6   11 d          -9.718 208.547 113.908  0.00  0.00     0.009 A 
ATOM      8  C7   11 d         -11.043 208.078 113.995  0.00  0.00     0.032 A 
ATOM      9  C8   11 d          -7.638 209.119 112.584  0.00  0.00     0.048 C 
ATOM     10  N2   11 d         -11.855 207.238 110.649  0.00  0.00    -0.231 NA
ATOM     11  C9   11 d         -14.191 206.313 110.490  0.00  0.00     0.255 C 
ATOM     12  N3   11 d         -15.480 207.078 110.594  0.00  0.00    -0.064 N 
ATOM     13  C10  11 d         -16.438 206.229 111.366  0.00  0.00     0.233 C 
ATOM     14  C11  11 d         -15.648 205.048 111.918  0.00  0.00     0.030 C 
ATOM     15  C12  11 d         -14.523 204.882 110.915  0.00  0.00     0.042 C 
ATOM     16  H1   11 d         -13.600 206.977 113.369  0.00  0.00     0.167 HD
ATOM     17  H9   11 d         -15.360 208.038 111.059  0.00  0.00     0.278 HD
ATOM     18  H10  11 d         -15.885 207.259 109.613  0.00  0.00     0.278 HD
ENDROOT
TORSDOF 0
ENDMDL
MODEL 2
REMARK VINA RESULT:      -7.4      1.360      2.296
REMARK  0 active torsions:
REMARK  status: ('A' for Active; 'I' for Inactive)
ROOT
ATOM      1  C1   11 d         -12.660 207.179 112.874  0.00  0.00     0.136 A 
ATOM      2  N1   11 d         -11.798 207.335 111.826  0.00  0.00    -0.341 N 
ATOM      3  C2   11 d         -10.679 207.909 112.307  0.00  0.00     0.062 A 
ATOM      4  C3   11 d         -10.860 208.119 113.656  0.00  0.00     0.086 A 
ATOM      5  C4   11 d          -9.876 208.725 114.443  0.00  0.00     0.040 A 
ATOM      6  C5   11 d          -8.678 209.142 113.816  0.00  0.00    -0.060 A 
ATOM      7  C6   11 d          -8.477 208.875 112.436  0.00  0.00     0.009 A 
ATOM      8  C7   11 d          -9.487 208.269 111.663  0.00  0.00     0.032 A 
ATOM      9  C8   11 d          -7.561 209.721 114.638  0.00  0.00     0.048 C 
ATOM     10  N2   11 d         -12.077 207.656 114.004  0.00  0.00    -0.231 NA
ATOM     11  C9   11 d         -14.072 206.598 112.889  0.00  0.00     0.255 C 
ATOM     12  N3   11 d         -14.196 205.181 112.404  0.00  0.00    -0.064 N 
ATOM     13  C10  11 d         -14.949 205.220 111.114  0.00  0.00     0.233 C 
ATOM     14  C11  11 d         -15.081 206.684 110.713  0.00  0.00     0.030 C 
ATOM     15  C12  11 d         -15.049 207.414 112.042  0.00  0.00     0.042 C 
ATOM     16  H1   11 d         -11.943 207.089 110.814  0.00  0.00     0.167 HD
ATOM     17  H9   11 d         -13.246 204.698 112.278  0.00  0.00     0.278 HD
ATOM     18  H10  11 d         -14.750 204.593 113.116  0.00  0.00     0.278 HD
ENDROOT
TORSDOF 0
ENDMDL
MODEL 3
REMARK VINA RESULT:      -7.2      2.095      6.045
REMARK  0 active torsions:
REMARK  status: ('A' for Active; 'I' for Inactive)
ROOT
ATOM      1  C1   11 d          -9.913 207.940 112.777  0.00  0.00     0.136 A 
ATOM      2  N1   11 d         -10.513 207.327 113.839  0.00  0.00    -0.341 N 
ATOM      3  C2   11 d         -11.671 206.800 113.399  0.00  0.00     0.062 A 
ATOM      4  C3   11 d         -11.790 207.105 112.061  0.00  0.00     0.086 A 
ATOM      5  C4   11 d         -12.906 206.712 111.315  0.00  0.00     0.040 A 
ATOM      6  C5   11 d         -13.937 206.000 111.973  0.00  0.00    -0.060 A 
ATOM      7  C6   11 d         -13.783 205.645 113.339  0.00  0.00     0.009 A 
ATOM      8  C7   11 d         -12.652 206.058 114.071  0.00  0.00     0.032 A 
ATOM      9  C8   11 d         -15.114 205.487 111.193  0.00  0.00     0.048 C 
ATOM     10  N2   11 d         -10.699 207.796 111.679  0.00  0.00    -0.231 NA
ATOM     11  C9   11 d          -8.594 208.708 112.719  0.00  0.00     0.255 C 
ATOM     12  N3   11 d          -7.374 207.932 113.128  0.00  0.00    -0.064 N 
ATOM     13  C10  11 d          -6.886 208.521 114.413  0.00  0.00     0.233 C 
ATOM     14  C11  11 d          -7.947 209.507 114.887  0.00  0.00     0.030 C 
ATOM     15  C12  11 d          -8.606 209.959 113.598  0.00  0.00     0.042 C 
ATOM     16  H1   11 d         -10.183 207.267 114.835  0.00  0.00     0.167 HD
ATOM     17  H9   11 d          -7.564 206.881 113.238  0.00  0.00     0.278 HD
ATOM     18  H10  11 d          -6.604 208.030 112.383  0.00  0.00     0.278 HD
ENDROOT
TORSDOF 0
ENDMDL
MODEL 4
REMARK VINA RESULT:      -7.0      3.236      5.710
REMARK  0 active torsions:
REMARK  status: ('A' for Active; 'I' for Inactive)
ROOT
ATOM      1  C1   11 d         -13.984 207.040 115.369  0.00  0.00     0.136 A 
ATOM      2  N1   11 d         -12.845 206.840 114.644  0.00  0.00    -0.341 N 
ATOM      3  C2   11 d         -13.183 206.883 113.341  0.00  0.00     0.062 A 
ATOM      4  C3   11 d         -14.542 207.097 113.267  0.00  0.00     0.086 A 
ATOM      5  C4   11 d         -15.207 207.171 112.039  0.00  0.00     0.040 A 
ATOM      6  C5   11 d         -14.451 207.000 110.855  0.00  0.00    -0.060 A 
ATOM      7  C6   11 d         -13.043 206.832 110.938  0.00  0.00     0.009 A 
ATOM      8  C7   11 d         -12.398 206.755 112.188  0.00  0.00     0.032 A 
ATOM      9  C8   11 d         -15.109 207.154 109.512  0.00  0.00     0.048 C 
ATOM     10  N2   11 d         -15.029 207.206 114.518  0.00  0.00    -0.231 NA
ATOM     11  C9   11 d         -14.176 207.072 116.883  0.00  0.00     0.255 C 
ATOM     12  N3   11 d         -13.370 208.105 117.618  0.00  0.00    -0.064 N 
ATOM     13  C10  11 d         -12.355 207.375 118.436  0.00  0.00     0.233 C 
ATOM     14  C11  11 d         -12.409 205.910 118.018  0.00  0.00     0.030 C 
ATOM     15  C12  11 d         -13.839 205.735 117.544  0.00  0.00     0.042 C 
ATOM     16  H1   11 d         -11.869 206.661 114.991  0.00  0.00     0.167 HD
ATOM     17  H9   11 d         -12.896 208.810 116.962  0.00  0.00     0.278 HD
ATOM     18  H10  11 d         -14.006 208.674 118.274  0.00  0.00     0.278 HD
ENDROOT
TORSDOF 0
ENDMDL
MODEL 5
REMARK VINA RESULT:      -6.9      3.654      6.259
REMARK  0 active torsions:
REMARK  status: ('A' for Active; 'I' for Inactive)
ROOT
ATOM      1  C1   11 d         -13.561 206.472 115.827  0.00  0.00     0.136 A 
ATOM      2  N1   11 d         -14.878 206.171 115.621  0.00  0.00    -0.341 N 
ATOM      3  C2   11 d         -15.112 206.273 114.299  0.00  0.00     0.062 A 
ATOM      4  C3   11 d         -13.936 206.653 113.691  0.00  0.00     0.086 A 
ATOM      5  C4   11 d         -13.858 206.866 112.311  0.00  0.00     0.040 A 
ATOM      6  C5   11 d         -15.032 206.699 111.539  0.00  0.00    -0.060 A 
ATOM      7  C6   11 d         -16.228 206.256 112.165  0.00  0.00     0.009 A 
ATOM      8  C7   11 d         -16.282 206.056 113.559  0.00  0.00     0.032 A 
ATOM      9  C8   11 d         -14.975 206.836 110.044  0.00  0.00     0.048 C 
ATOM     10  N2   11 d         -12.980 206.762 114.634  0.00  0.00    -0.231 NA
ATOM     11  C9   11 d         -12.773 206.527 117.133  0.00  0.00     0.255 C 
ATOM     12  N3   11 d         -12.741 205.251 117.926  0.00  0.00    -0.064 N 
ATOM     13  C10  11 d         -13.529 205.485 119.174  0.00  0.00     0.233 C 
ATOM     14  C11  11 d         -14.221 206.834 119.022  0.00  0.00     0.030 C 
ATOM     15  C12  11 d         -13.299 207.597 118.090  0.00  0.00     0.042 C 
ATOM     16  H1   11 d         -15.613 205.921 116.329  0.00  0.00     0.167 HD
ATOM     17  H9   11 d         -13.129 204.411 117.381  0.00  0.00     0.278 HD
ATOM     18  H10  11 d         -11.727 205.005 118.192  0.00  0.00     0.278 HD
ENDROOT
TORSDOF 0
ENDMDL
MODEL 6
REMARK VINA RESULT:      -6.9      3.301      6.284
REMARK  0 active torsions:
REMARK  status: ('A' for Active; 'I' for Inactive)
ROOT
ATOM      1  C1   11 d         -11.925 207.657 116.223  0.00  0.00     0.136 A 
ATOM      2  N1   11 d         -11.021 207.167 115.325  0.00  0.00    -0.341 N 
ATOM      3  C2   11 d         -11.654 207.042 114.143  0.00  0.00     0.062 A 
ATOM      4  C3   11 d         -12.959 207.444 114.321  0.00  0.00     0.086 A 
ATOM      5  C4   11 d         -13.886 207.412 113.274  0.00  0.00     0.040 A 
ATOM      6  C5   11 d         -13.458 206.932 112.013  0.00  0.00    -0.060 A 
ATOM      7  C6   11 d         -12.098 206.568 111.825  0.00  0.00     0.009 A 
ATOM      8  C7   11 d         -11.185 206.604 112.897  0.00  0.00     0.032 A 
ATOM      9  C8   11 d         -14.397 206.957 110.840  0.00  0.00     0.048 C 
ATOM     10  N2   11 d         -13.119 207.835 115.600  0.00  0.00    -0.231 NA
ATOM     11  C9   11 d         -11.745 207.971 117.707  0.00  0.00     0.255 C 
ATOM     12  N3   11 d         -10.678 208.978 118.032  0.00  0.00    -0.064 N 
ATOM     13  C10  11 d          -9.583 208.249 118.742  0.00  0.00     0.233 C 
ATOM     14  C11  11 d          -9.896 206.761 118.643  0.00  0.00     0.030 C 
ATOM     15  C12  11 d         -11.408 206.728 118.531  0.00  0.00     0.042 C 
ATOM     16  H1   11 d         -10.016 206.902 115.483  0.00  0.00     0.167 HD
ATOM     17  H9   11 d         -10.300 209.482 117.163  0.00  0.00     0.278 HD
ATOM     18  H10  11 d         -11.073 209.739 118.683  0.00  0.00     0.278 HD
ENDROOT
TORSDOF 0
ENDMDL
MODEL 7
REMARK VINA RESULT:      -6.7      2.409      3.645
REMARK  0 active torsions:
REMARK  status: ('A' for Active; 'I' for Inactive)
ROOT
ATOM      1  C1   11 d         -11.348 208.051 114.407  0.00  0.00     0.136 A 
ATOM      2  N1   11 d         -10.793 207.891 113.169  0.00  0.00    -0.341 N 
ATOM      3  C2   11 d          -9.538 208.377 113.224  0.00  0.00     0.062 A 
ATOM      4  C3   11 d          -9.327 208.851 114.499  0.00  0.00     0.086 A 
ATOM      5  C4   11 d          -8.115 209.443 114.871  0.00  0.00     0.040 A 
ATOM      6  C5   11 d          -7.100 209.565 113.893  0.00  0.00    -0.060 A 
ATOM      7  C6   11 d          -7.307 209.027 112.595  0.00  0.00     0.009 A 
ATOM      8  C7   11 d          -8.539 208.441 112.244  0.00  0.00     0.032 A 
ATOM      9  C8   11 d          -5.754 210.118 114.269  0.00  0.00     0.048 C 
ATOM     10  N2   11 d         -10.439 208.636 115.229  0.00  0.00    -0.231 NA
ATOM     11  C9   11 d         -12.749 207.689 114.894  0.00  0.00     0.255 C 
ATOM     12  N3   11 d         -13.127 206.241 114.768  0.00  0.00    -0.064 N 
ATOM     13  C10  11 d         -14.195 206.152 113.726  0.00  0.00     0.233 C 
ATOM     14  C11  11 d         -14.299 207.523 113.070  0.00  0.00     0.030 C 
ATOM     15  C12  11 d         -13.842 208.469 114.163  0.00  0.00     0.042 C 
ATOM     16  H1   11 d         -11.229 207.489 112.301  0.00  0.00     0.167 HD
ATOM     17  H9   11 d         -12.294 205.612 114.514  0.00  0.00     0.278 HD
ATOM     18  H10  11 d         -13.516 205.875 115.702  0.00  0.00     0.278 HD
ENDROOT
TORSDOF 0
ENDMDL
MODEL 8
REMARK VINA RESULT:      -6.7      2.994      3.841
REMARK  0 active torsions:
REMARK  status: ('A' for Active; 'I' for Inactive)
ROOT
ATOM      1  C1   11 d         -13.531 206.361 112.962  0.00  0.00     0.136 A 
ATOM      2  N1   11 d         -14.241 207.221 113.751  0.00  0.00    -0.341 N 
ATOM      3  C2   11 d         -13.705 207.169 114.985  0.00  0.00     0.062 A 
ATOM      4  C3   11 d         -12.670 206.263 114.957  0.00  0.00     0.086 A 
ATOM      5  C4   11 d         -11.921 205.968 116.101  0.00  0.00     0.040 A 
ATOM      6  C5   11 d         -12.265 206.614 117.313  0.00  0.00    -0.060 A 
ATOM      7  C6   11 d         -13.299 207.586 117.322  0.00  0.00     0.009 A 
ATOM      8  C7   11 d         -14.043 207.860 116.157  0.00  0.00     0.032 A 
ATOM      9  C8   11 d         -11.436 206.390 118.546  0.00  0.00     0.048 C 
ATOM     10  N2   11 d         -12.557 205.776 113.706  0.00  0.00    -0.231 NA
ATOM     11  C9   11 d         -13.721 206.019 111.486  0.00  0.00     0.255 C 
ATOM     12  N3   11 d         -13.629 207.178 110.534  0.00  0.00    -0.064 N 
ATOM     13  C10  11 d         -14.995 207.395 109.968  0.00  0.00     0.233 C 
ATOM     14  C11  11 d         -15.953 206.506 110.752  0.00  0.00     0.030 C 
ATOM     15  C12  11 d         -15.073 205.359 111.208  0.00  0.00     0.042 C 
ATOM     16  H1   11 d         -15.069 207.815 113.494  0.00  0.00     0.167 HD
ATOM     17  H9   11 d         -13.262 208.073 110.999  0.00  0.00     0.278 HD
ATOM     18  H10  11 d         -12.950 206.946 109.732  0.00  0.00     0.278 HD
ENDROOT
TORSDOF 0
ENDMDL
MODEL 9
REMARK VINA RESULT:      -6.6      3.475      5.460
REMARK  0 active torsions:
REMARK  status: ('A' for Active; 'I' for Inactive)
ROOT
ATOM      1  C1   11 d         -12.057 206.927 116.110  0.00  0.00     0.136 A 
ATOM      2  N1   11 d         -13.022 206.310 115.366  0.00  0.00    -0.341 N 
ATOM      3  C2   11 d         -12.706 206.488 114.069  0.00  0.00     0.062 A 
ATOM      4  C3   11 d         -11.548 207.231 114.016  0.00  0.00     0.086 A 
ATOM      5  C4   11 d         -10.970 207.604 112.799  0.00  0.00     0.040 A 
ATOM      6  C5   11 d         -11.616 207.215 111.602  0.00  0.00    -0.060 A 
ATOM      7  C6   11 d         -12.781 206.405 111.664  0.00  0.00     0.009 A 
ATOM      8  C7   11 d         -13.348 206.048 112.903  0.00  0.00     0.032 A 
ATOM      9  C8   11 d         -10.987 207.523 110.272  0.00  0.00     0.048 C 
ATOM     10  N2   11 d         -11.144 207.488 115.276  0.00  0.00    -0.231 NA
ATOM     11  C9   11 d         -11.933 207.048 117.627  0.00  0.00     0.255 C 
ATOM     12  N3   11 d         -11.867 205.749 118.378  0.00  0.00    -0.064 N 
ATOM     13  C10  11 d         -13.133 205.628 119.165  0.00  0.00     0.233 C 
ATOM     14  C11  11 d         -14.055 206.752 118.708  0.00  0.00     0.030 C 
ATOM     15  C12  11 d         -13.092 207.829 118.248  0.00  0.00     0.042 C 
ATOM     16  H1   11 d         -13.879 205.798 115.696  0.00  0.00     0.167 HD
ATOM     17  H9   11 d         -11.736 204.900 117.735  0.00  0.00     0.278 HD
ATOM     18  H10  11 d         -11.032 205.754 119.057  0.00  0.00     0.278 HD
ENDROOT
TORSDOF 0
ENDMDL
MODEL 10
REMARK VINA RESULT:      -6.4      3.337      7.126
REMARK  0 active torsions:
REMARK  status: ('A' for Active; 'I' for Inactive)
ROOT
ATOM      1  C1   11 d          -8.416 208.853 114.775  0.00  0.00     0.136 A 
ATOM      2  N1   11 d          -8.705 208.296 113.562  0.00  0.00    -0.341 N 
ATOM      3  C2   11 d         -10.035 208.088 113.520  0.00  0.00     0.062 A 
ATOM      4  C3   11 d         -10.564 208.507 114.720  0.00  0.00     0.086 A 
ATOM      5  C4   11 d         -11.931 208.402 114.997  0.00  0.00     0.040 A 
ATOM      6  C5   11 d         -12.772 207.831 114.012  0.00  0.00    -0.060 A 
ATOM      7  C6   11 d         -12.227 207.450 112.758  0.00  0.00     0.009 A 
ATOM      8  C7   11 d         -10.846 207.560 112.507  0.00  0.00     0.032 A 
ATOM      9  C8   11 d         -14.258 207.774 114.233  0.00  0.00     0.048 C 
ATOM     10  N2   11 d          -9.565 208.990 115.486  0.00  0.00    -0.231 NA
ATOM     11  C9   11 d          -7.067 209.273 115.352  0.00  0.00     0.255 C 
ATOM     12  N3   11 d          -6.310 210.297 114.554  0.00  0.00    -0.064 N 
ATOM     13  C10  11 d          -5.103 209.618 113.994  0.00  0.00     0.233 C 
ATOM     14  C11  11 d          -5.255 208.127 114.273  0.00  0.00     0.030 C 
ATOM     15  C12  11 d          -6.111 208.092 115.524  0.00  0.00     0.042 C 
ATOM     16  H1   11 d          -8.046 208.040 112.784  0.00  0.00     0.167 HD
ATOM     17  H9   11 d          -6.899 210.735 113.771  0.00  0.00     0.278 HD
ATOM     18  H10  11 d          -5.994 211.105 115.192  0.00  0.00     0.278 HD
ENDROOT
TORSDOF 0
ENDMDL
