MODEL 1
REMARK VINA RESULT:      -9.4      0.000      0.000
REMARK  0 active torsions:
REMARK  status: ('A' for Active; 'I' for Inactive)
ROOT
ATOM      1  C1   11 d         -12.040 206.909 111.286  0.00  0.00     0.176 A 
ATOM      2  C2   11 d         -13.492 206.842 111.135  0.00  0.00     0.025 A 
ATOM      3  C3   11 d         -14.027 206.346 112.310  0.00  0.00     0.025 A 
ATOM      4  C4   11 d         -12.927 206.096 113.240  0.00  0.00     0.176 A 
ATOM      5  O1   11 d         -13.088 205.607 114.388  0.00  0.00    -0.291 OA
ATOM      6  C5   11 d         -11.583 206.480 112.662  0.00  0.00     0.168 A 
ATOM      7  C6   11 d         -10.803 207.567 113.389  0.00  0.00    -0.036 A 
ATOM      8  C7   11 d          -9.561 207.980 112.858  0.00  0.00     0.027 A 
ATOM      9  C8   11 d          -8.818 208.978 113.503  0.00  0.00     0.116 A 
ATOM     10  N1   11 d          -9.292 209.549 114.646  0.00  0.00    -0.273 NA
ATOM     11  C9   11 d         -10.482 209.175 115.194  0.00  0.00     0.116 A 
ATOM     12  C10  11 d         -11.257 208.181 114.580  0.00  0.00     0.027 A 
ATOM     13  C11  11 d         -15.409 206.162 112.457  0.00  0.00     0.016 A 
ATOM     14  C12  11 d         -16.251 206.497 111.379  0.00  0.00     0.001 A 
ATOM     15  C13  11 d         -15.705 207.002 110.180  0.00  0.00     0.001 A 
ATOM     16  C14  11 d         -14.314 207.177 110.049  0.00  0.00     0.016 A 
ATOM     17  O2   11 d         -11.266 207.269 110.362  0.00  0.00    -0.291 OA
ENDROOT
TORSDOF 0
ENDMDL
MODEL 2
REMARK VINA RESULT:      -8.9      2.255      5.709
REMARK  0 active torsions:
REMARK  status: ('A' for Active; 'I' for Inactive)
ROOT
ATOM      1  C1   11 d         -11.765 206.496 113.130  0.00  0.00     0.176 A 
ATOM      2  C2   11 d         -10.824 207.608 113.252  0.00  0.00     0.025 A 
ATOM      3  C3   11 d         -10.485 208.030 111.980  0.00  0.00     0.025 A 
ATOM      4  C4   11 d         -11.210 207.201 111.017  0.00  0.00     0.176 A 
ATOM      5  O1   11 d         -11.085 207.316 109.771  0.00  0.00    -0.291 OA
ATOM      6  C5   11 d         -12.112 206.190 111.690  0.00  0.00     0.168 A 
ATOM      7  C6   11 d         -13.605 206.301 111.408  0.00  0.00    -0.036 A 
ATOM      8  C7   11 d         -14.484 205.400 112.048  0.00  0.00     0.027 A 
ATOM      9  C8   11 d         -15.863 205.474 111.811  0.00  0.00     0.116 A 
ATOM     10  N1   11 d         -16.357 206.415 110.958  0.00  0.00    -0.273 NA
ATOM     11  C9   11 d         -15.544 207.299 110.317  0.00  0.00     0.116 A 
ATOM     12  C10  11 d         -14.158 207.260 110.527  0.00  0.00     0.027 A 
ATOM     13  C11  11 d          -9.584 209.086 111.781  0.00  0.00     0.016 A 
ATOM     14  C12  11 d          -9.030 209.717 112.910  0.00  0.00     0.001 A 
ATOM     15  C13  11 d          -9.375 209.287 114.209  0.00  0.00     0.001 A 
ATOM     16  C14  11 d         -10.279 208.222 114.389  0.00  0.00     0.016 A 
ATOM     17  O2   11 d         -12.215 205.861 114.117  0.00  0.00    -0.291 OA
ENDROOT
TORSDOF 0
ENDMDL
MODEL 3
REMARK VINA RESULT:      -8.0      2.491      3.062
REMARK  0 active torsions:
REMARK  status: ('A' for Active; 'I' for Inactive)
ROOT
ATOM      1  C1   11 d         -12.883 206.149 113.595  0.00  0.00     0.176 A 
ATOM      2  C2   11 d         -14.011 206.428 112.708  0.00  0.00     0.025 A 
ATOM      3  C3   11 d         -15.168 205.997 113.330  0.00  0.00     0.025 A 
ATOM      4  C4   11 d         -14.804 205.442 114.633  0.00  0.00     0.176 A 
ATOM      5  O1   11 d         -15.637 204.933 115.426  0.00  0.00    -0.291 OA
ATOM      6  C5   11 d         -13.320 205.540 114.908  0.00  0.00     0.168 A 
ATOM      7  C6   11 d         -12.895 206.370 116.113  0.00  0.00    -0.036 A 
ATOM      8  C7   11 d         -11.516 206.518 116.381  0.00  0.00     0.027 A 
ATOM      9  C8   11 d         -11.091 207.276 117.480  0.00  0.00     0.116 A 
ATOM     10  N1   11 d         -12.009 207.868 118.295  0.00  0.00    -0.273 NA
ATOM     11  C9   11 d         -13.347 207.745 118.075  0.00  0.00     0.116 A 
ATOM     12  C10  11 d         -13.815 206.997 116.985  0.00  0.00     0.027 A 
ATOM     13  C11  11 d         -16.418 206.128 112.709  0.00  0.00     0.016 A 
ATOM     14  C12  11 d         -16.475 206.715 111.430  0.00  0.00     0.001 A 
ATOM     15  C13  11 d         -15.294 207.154 110.795  0.00  0.00     0.001 A 
ATOM     16  C14  11 d         -14.047 207.011 111.433  0.00  0.00     0.016 A 
ATOM     17  O2   11 d         -11.686 206.377 113.283  0.00  0.00    -0.291 OA
ENDROOT
TORSDOF 0
ENDMDL
MODEL 4
REMARK VINA RESULT:      -7.8      2.942      4.659
REMARK  0 active torsions:
REMARK  status: ('A' for Active; 'I' for Inactive)
ROOT
ATOM      1  C1   11 d         -13.665 206.856 112.978  0.00  0.00     0.176 A 
ATOM      2  C2   11 d         -12.530 207.174 112.114  0.00  0.00     0.025 A 
ATOM      3  C3   11 d         -11.587 207.847 112.868  0.00  0.00     0.025 A 
ATOM      4  C4   11 d         -12.097 207.964 114.234  0.00  0.00     0.176 A 
ATOM      5  O1   11 d         -11.481 208.560 115.155  0.00  0.00    -0.291 OA
ATOM      6  C5   11 d         -13.444 207.300 114.407  0.00  0.00     0.168 A 
ATOM      7  C6   11 d         -13.525 206.148 115.400  0.00  0.00    -0.036 A 
ATOM      8  C7   11 d         -14.757 205.477 115.561  0.00  0.00     0.027 A 
ATOM      9  C8   11 d         -14.865 204.413 116.466  0.00  0.00     0.116 A 
ATOM     10  N1   11 d         -13.781 204.027 117.197  0.00  0.00    -0.273 NA
ATOM     11  C9   11 d         -12.577 204.651 117.076  0.00  0.00     0.116 A 
ATOM     12  C10  11 d         -12.425 205.720 116.180  0.00  0.00     0.027 A 
ATOM     13  C11  11 d         -10.384 208.289 112.300  0.00  0.00     0.016 A 
ATOM     14  C12  11 d         -10.150 208.031 110.936  0.00  0.00     0.001 A 
ATOM     15  C13  11 d         -11.113 207.345 110.166  0.00  0.00     0.001 A 
ATOM     16  C14  11 d         -12.317 206.911 110.753  0.00  0.00     0.016 A 
ATOM     17  O2   11 d         -14.711 206.292 112.565  0.00  0.00    -0.291 OA
ENDROOT
TORSDOF 0
ENDMDL
MODEL 5
REMARK VINA RESULT:      -7.8      2.889      3.903
REMARK  0 active torsions:
REMARK  status: ('A' for Active; 'I' for Inactive)
ROOT
ATOM      1  C1   11 d         -14.521 207.821 114.139  0.00  0.00     0.176 A 
ATOM      2  C2   11 d         -14.731 207.189 112.838  0.00  0.00     0.025 A 
ATOM      3  C3   11 d         -13.517 206.699 112.393  0.00  0.00     0.025 A 
ATOM      4  C4   11 d         -12.507 207.000 113.407  0.00  0.00     0.176 A 
ATOM      5  O1   11 d         -11.289 206.713 113.278  0.00  0.00    -0.291 OA
ATOM      6  C5   11 d         -13.090 207.702 114.613  0.00  0.00     0.168 A 
ATOM      7  C6   11 d         -12.971 206.987 115.953  0.00  0.00    -0.036 A 
ATOM      8  C7   11 d         -13.537 207.592 117.096  0.00  0.00     0.027 A 
ATOM      9  C8   11 d         -13.446 206.961 118.344  0.00  0.00     0.116 A 
ATOM     10  N1   11 d         -12.806 205.763 118.456  0.00  0.00    -0.273 NA
ATOM     11  C9   11 d         -12.242 205.149 117.379  0.00  0.00     0.116 A 
ATOM     12  C10  11 d         -12.311 205.746 116.112  0.00  0.00     0.027 A 
ATOM     13  C11  11 d         -13.407 206.043 111.159  0.00  0.00     0.016 A 
ATOM     14  C12  11 d         -14.566 205.888 110.375  0.00  0.00     0.001 A 
ATOM     15  C13  11 d         -15.805 206.388 110.828  0.00  0.00     0.001 A 
ATOM     16  C14  11 d         -15.896 207.047 112.069  0.00  0.00     0.016 A 
ATOM     17  O2   11 d         -15.431 208.410 114.776  0.00  0.00    -0.291 OA
ENDROOT
TORSDOF 0
ENDMDL
MODEL 6
REMARK VINA RESULT:      -7.5      2.636      4.688
REMARK  0 active torsions:
REMARK  status: ('A' for Active; 'I' for Inactive)
ROOT
ATOM      1  C1   11 d         -10.111 208.391 114.376  0.00  0.00     0.176 A 
ATOM      2  C2   11 d         -10.699 207.885 113.137  0.00  0.00     0.025 A 
ATOM      3  C3   11 d         -10.006 208.432 112.073  0.00  0.00     0.025 A 
ATOM      4  C4   11 d          -8.953 209.293 112.612  0.00  0.00     0.176 A 
ATOM      5  O1   11 d          -8.170 209.964 111.890  0.00  0.00    -0.291 OA
ATOM      6  C5   11 d          -8.922 209.291 114.124  0.00  0.00     0.168 A 
ATOM      7  C6   11 d          -7.648 208.785 114.789  0.00  0.00    -0.036 A 
ATOM      8  C7   11 d          -7.595 208.731 116.199  0.00  0.00     0.027 A 
ATOM      9  C8   11 d          -6.439 208.270 116.842  0.00  0.00     0.116 A 
ATOM     10  N1   11 d          -5.361 207.877 116.106  0.00  0.00    -0.273 NA
ATOM     11  C9   11 d          -5.370 207.918 114.745  0.00  0.00     0.116 A 
ATOM     12  C10  11 d          -6.507 208.372 114.062  0.00  0.00     0.027 A 
ATOM     13  C11  11 d         -10.353 208.132 110.749  0.00  0.00     0.016 A 
ATOM     14  C12  11 d         -11.428 207.253 110.519  0.00  0.00     0.001 A 
ATOM     15  C13  11 d         -12.136 206.694 111.604  0.00  0.00     0.001 A 
ATOM     16  C14  11 d         -11.775 207.010 112.928  0.00  0.00     0.016 A 
ATOM     17  O2   11 d         -10.561 208.116 115.517  0.00  0.00    -0.291 OA
ENDROOT
TORSDOF 0
ENDMDL
MODEL 7
REMARK VINA RESULT:      -7.5      2.552      4.456
REMARK  0 active torsions:
REMARK  status: ('A' for Active; 'I' for Inactive)
ROOT
ATOM      1  C1   11 d          -9.861 208.701 114.288  0.00  0.00     0.176 A 
ATOM      2  C2   11 d         -10.880 207.715 113.934  0.00  0.00     0.025 A 
ATOM      3  C3   11 d         -10.988 207.678 112.557  0.00  0.00     0.025 A 
ATOM      4  C4   11 d         -10.032 208.634 112.000  0.00  0.00     0.176 A 
ATOM      5  O1   11 d          -9.914 208.859 110.768  0.00  0.00    -0.291 OA
ATOM      6  C5   11 d          -9.215 209.324 113.070  0.00  0.00     0.168 A 
ATOM      7  C6   11 d          -7.707 209.113 113.031  0.00  0.00    -0.036 A 
ATOM      8  C7   11 d          -6.913 209.709 114.036  0.00  0.00     0.027 A 
ATOM      9  C8   11 d          -5.523 209.535 114.030  0.00  0.00     0.116 A 
ATOM     10  N1   11 d          -4.934 208.793 113.050  0.00  0.00    -0.273 NA
ATOM     11  C9   11 d          -5.662 208.207 112.060  0.00  0.00     0.116 A 
ATOM     12  C10  11 d          -7.057 208.355 112.030  0.00  0.00     0.027 A 
ATOM     13  C11  11 d         -11.901 206.823 111.923  0.00  0.00     0.016 A 
ATOM     14  C12  11 d         -12.710 205.992 112.721  0.00  0.00     0.001 A 
ATOM     15  C13  11 d         -12.600 206.030 114.128  0.00  0.00     0.001 A 
ATOM     16  C14  11 d         -11.681 206.898 114.747  0.00  0.00     0.016 A 
ATOM     17  O2   11 d          -9.574 209.003 115.474  0.00  0.00    -0.291 OA
ENDROOT
TORSDOF 0
ENDMDL
MODEL 8
REMARK VINA RESULT:      -7.5      3.016      6.619
REMARK  0 active torsions:
REMARK  status: ('A' for Active; 'I' for Inactive)
ROOT
ATOM      1  C1   11 d          -7.649 208.744 112.601  0.00  0.00     0.176 A 
ATOM      2  C2   11 d          -6.890 208.473 113.820  0.00  0.00     0.025 A 
ATOM      3  C3   11 d          -7.693 208.771 114.905  0.00  0.00     0.025 A 
ATOM      4  C4   11 d          -8.987 209.230 114.401  0.00  0.00     0.176 A 
ATOM      5  O1   11 d          -9.925 209.611 115.147  0.00  0.00    -0.291 OA
ATOM      6  C5   11 d          -9.061 209.203 112.891  0.00  0.00     0.168 A 
ATOM      7  C6   11 d         -10.114 208.297 112.266  0.00  0.00    -0.036 A 
ATOM      8  C7   11 d         -10.189 208.215 110.858  0.00  0.00     0.027 A 
ATOM      9  C8   11 d         -11.146 207.391 110.252  0.00  0.00     0.116 A 
ATOM     10  N1   11 d         -12.010 206.671 111.021  0.00  0.00    -0.273 NA
ATOM     11  C9   11 d         -11.975 206.726 112.381  0.00  0.00     0.116 A 
ATOM     12  C10  11 d         -11.032 207.537 113.028  0.00  0.00     0.027 A 
ATOM     13  C11  11 d          -7.226 208.616 116.218  0.00  0.00     0.016 A 
ATOM     14  C12  11 d          -5.914 208.144 116.413  0.00  0.00     0.001 A 
ATOM     15  C13  11 d          -5.094 207.840 115.306  0.00  0.00     0.001 A 
ATOM     16  C14  11 d          -5.579 208.006 113.994  0.00  0.00     0.016 A 
ATOM     17  O2   11 d          -7.167 208.622 111.446  0.00  0.00    -0.291 OA
ENDROOT
TORSDOF 0
ENDMDL
MODEL 9
REMARK VINA RESULT:      -7.2      3.253      5.458
REMARK  0 active torsions:
REMARK  status: ('A' for Active; 'I' for Inactive)
ROOT
ATOM      1  C1   11 d         -11.805 207.958 113.592  0.00  0.00     0.176 A 
ATOM      2  C2   11 d         -10.413 208.253 113.260  0.00  0.00     0.025 A 
ATOM      3  C3   11 d          -9.778 208.692 114.407  0.00  0.00     0.025 A 
ATOM      4  C4   11 d         -10.751 208.678 115.499  0.00  0.00     0.176 A 
ATOM      5  O1   11 d         -10.486 209.060 116.668  0.00  0.00    -0.291 OA
ATOM      6  C5   11 d         -12.105 208.166 115.059  0.00  0.00     0.168 A 
ATOM      7  C6   11 d         -12.621 206.905 115.740  0.00  0.00    -0.036 A 
ATOM      8  C7   11 d         -13.863 206.374 115.330  0.00  0.00     0.027 A 
ATOM      9  C8   11 d         -14.366 205.215 115.935  0.00  0.00     0.116 A 
ATOM     10  N1   11 d         -13.658 204.600 116.924  0.00  0.00    -0.273 NA
ATOM     11  C9   11 d         -12.459 205.083 117.353  0.00  0.00     0.116 A 
ATOM     12  C10  11 d         -11.919 206.240 116.773  0.00  0.00     0.027 A 
ATOM     13  C11  11 d          -8.425 209.060 114.393  0.00  0.00     0.016 A 
ATOM     14  C12  11 d          -7.717 208.969 113.179  0.00  0.00     0.001 A 
ATOM     15  C13  11 d          -8.365 208.521 112.008  0.00  0.00     0.001 A 
ATOM     16  C14  11 d          -9.725 208.159 112.041  0.00  0.00     0.016 A 
ATOM     17  O2   11 d         -12.655 207.590 112.741  0.00  0.00    -0.291 OA
ENDROOT
TORSDOF 0
ENDMDL
MODEL 10
REMARK VINA RESULT:      -7.2      2.887      4.895
REMARK  0 active torsions:
REMARK  status: ('A' for Active; 'I' for Inactive)
ROOT
ATOM      1  C1   11 d         -11.432 208.073 115.257  0.00  0.00     0.176 A 
ATOM      2  C2   11 d         -11.267 207.834 113.825  0.00  0.00     0.025 A 
ATOM      3  C3   11 d         -10.172 208.556 113.388  0.00  0.00     0.025 A 
ATOM      4  C4   11 d          -9.607 209.264 114.536  0.00  0.00     0.176 A 
ATOM      5  O1   11 d          -8.618 210.037 114.455  0.00  0.00    -0.291 OA
ATOM      6  C5   11 d         -10.351 208.969 115.820  0.00  0.00     0.168 A 
ATOM      7  C6   11 d          -9.560 208.306 116.940  0.00  0.00    -0.036 A 
ATOM      8  C7   11 d         -10.229 207.979 118.140  0.00  0.00     0.027 A 
ATOM      9  C8   11 d          -9.531 207.367 119.190  0.00  0.00     0.116 A 
ATOM     10  N1   11 d          -8.203 207.091 119.055  0.00  0.00    -0.273 NA
ATOM     11  C9   11 d          -7.520 207.394 117.917  0.00  0.00     0.116 A 
ATOM     12  C10  11 d          -8.181 208.006 116.842  0.00  0.00     0.027 A 
ATOM     13  C11  11 d          -9.773 208.528 112.044  0.00  0.00     0.016 A 
ATOM     14  C12  11 d         -10.513 207.742 111.140  0.00  0.00     0.001 A 
ATOM     15  C13  11 d         -11.631 207.006 111.585  0.00  0.00     0.001 A 
ATOM     16  C14  11 d         -12.019 207.049 112.938  0.00  0.00     0.016 A 
ATOM     17  O2   11 d         -12.379 207.597 115.933  0.00  0.00    -0.291 OA
ENDROOT
TORSDOF 0
ENDMDL
