MODEL 1
REMARK VINA RESULT:      -6.4      0.000      0.000
REMARK  3 active torsions:
REMARK  status: ('A' for Active; 'I' for Inactive)
REMARK    1  A    between atoms: C1_1  and  N1_2 
REMARK    2  A    between atoms: C1_1  and  N2_9 
REMARK    3  A    between atoms: N2_9  and  C6_10 
ROOT
ATOM      1  C1   11 d         -11.819 207.068 113.429  0.00  0.00     0.174 C 
ATOM      2  S1   11 d         -10.806 207.726 112.618  0.00  0.00    -0.041 SA
ENDROOT
BRANCH   1   3
ATOM      3  N1   11 d         -11.912 207.333 114.878  0.00  0.00    -0.354 N 
ATOM      4  C2   11 d         -12.873 208.388 115.352  0.00  0.00     0.151 C 
ATOM      5  C3   11 d         -14.237 207.798 115.742  0.00  0.00     0.187 C 
ATOM      6  O1   11 d         -14.087 206.687 116.669  0.00  0.00    -0.388 OA
ATOM      7  C4   11 d         -13.290 205.621 116.082  0.00  0.00     0.187 C 
ATOM      8  C5   11 d         -11.878 206.116 115.753  0.00  0.00     0.151 C 
ENDBRANCH   1   3
BRANCH   1   9
ATOM      9  N2   11 d         -12.794 206.084 112.916  0.00  0.00    -0.333 N 
ATOM     10  H9   11 d         -12.497 205.063 113.079  0.00  0.00     0.168 HD
BRANCH   9  11
ATOM     11  C6   11 d         -14.098 206.262 112.230  0.00  0.00     0.034 A 
ATOM     12  C7   11 d         -15.241 205.791 112.917  0.00  0.00     0.029 A 
ATOM     13  C8   11 d         -16.525 205.915 112.366  0.00  0.00     0.002 A 
ATOM     14  C9   11 d         -16.695 206.511 111.112  0.00  0.00     0.000 A 
ATOM     15  C10  11 d         -15.579 206.982 110.411  0.00  0.00     0.002 A 
ATOM     16  C11  11 d         -14.293 206.862 110.961  0.00  0.00     0.029 A 
ENDBRANCH   9  11
ENDBRANCH   1   9
TORSDOF 3
ENDMDL
MODEL 2
REMARK VINA RESULT:      -6.3      2.185      2.792
REMARK  3 active torsions:
REMARK  status: ('A' for Active; 'I' for Inactive)
REMARK    1  A    between atoms: C1_1  and  N1_2 
REMARK    2  A    between atoms: C1_1  and  N2_9 
REMARK    3  A    between atoms: N2_9  and  C6_10 
ROOT
ATOM      1  C1   11 d         -12.173 206.457 114.164  0.00  0.00     0.174 C 
ATOM      2  S1   11 d         -11.932 205.828 115.454  0.00  0.00    -0.041 SA
ENDROOT
BRANCH   1   3
ATOM      3  N1   11 d         -11.794 207.864 113.931  0.00  0.00    -0.354 N 
ATOM      4  C2   11 d         -11.435 208.714 115.118  0.00  0.00     0.151 C 
ATOM      5  C3   11 d          -9.921 208.730 115.384  0.00  0.00     0.187 C 
ATOM      6  O1   11 d          -9.176 209.065 114.181  0.00  0.00    -0.388 OA
ATOM      7  C4   11 d          -9.434 208.101 113.122  0.00  0.00     0.187 C 
ATOM      8  C5   11 d         -10.916 208.099 112.738  0.00  0.00     0.151 C 
ENDBRANCH   1   3
BRANCH   1   9
ATOM      9  N2   11 d         -12.824 205.793 113.017  0.00  0.00    -0.333 N 
ATOM     10  H9   11 d         -12.279 204.941 112.650  0.00  0.00     0.168 HD
BRANCH   9  11
ATOM     11  C6   11 d         -14.087 206.093 112.299  0.00  0.00     0.034 A 
ATOM     12  C7   11 d         -15.284 205.683 112.930  0.00  0.00     0.029 A 
ATOM     13  C8   11 d         -16.537 205.922 112.345  0.00  0.00     0.002 A 
ATOM     14  C9   11 d         -16.620 206.575 111.111  0.00  0.00     0.000 A 
ATOM     15  C10  11 d         -15.450 206.988 110.464  0.00  0.00     0.002 A 
ATOM     16  C11  11 d         -14.195 206.752 111.049  0.00  0.00     0.029 A 
ENDBRANCH   9  11
ENDBRANCH   1   9
TORSDOF 3
ENDMDL
MODEL 3
REMARK VINA RESULT:      -6.3      1.280      2.038
REMARK  3 active torsions:
REMARK  status: ('A' for Active; 'I' for Inactive)
REMARK    1  A    between atoms: C1_1  and  N1_2 
REMARK    2  A    between atoms: C1_1  and  N2_9 
REMARK    3  A    between atoms: N2_9  and  C6_10 
ROOT
ATOM      1  C1   11 d         -11.938 207.424 113.603  0.00  0.00     0.174 C 
ATOM      2  S1   11 d         -10.766 207.630 112.767  0.00  0.00    -0.041 SA
ENDROOT
BRANCH   1   3
ATOM      3  N1   11 d         -12.177 208.275 114.786  0.00  0.00    -0.354 N 
ATOM      4  C2   11 d         -13.201 207.831 115.793  0.00  0.00     0.151 C 
ATOM      5  C3   11 d         -12.572 207.033 116.946  0.00  0.00     0.187 C 
ATOM      6  O1   11 d         -11.450 207.746 117.534  0.00  0.00    -0.388 OA
ATOM      7  C4   11 d         -10.412 207.993 116.543  0.00  0.00     0.187 C 
ATOM      8  C5   11 d         -10.945 208.867 115.404  0.00  0.00     0.151 C 
ENDBRANCH   1   3
BRANCH   1   9
ATOM      9  N2   11 d         -12.948 206.369 113.386  0.00  0.00    -0.333 N 
ATOM     10  H9   11 d         -12.683 205.425 113.829  0.00  0.00     0.168 HD
BRANCH   9  11
ATOM     11  C6   11 d         -14.252 206.391 112.677  0.00  0.00     0.034 A 
ATOM     12  C7   11 d         -14.244 206.906 111.361  0.00  0.00     0.029 A 
ATOM     13  C8   11 d         -15.418 206.967 110.594  0.00  0.00     0.002 A 
ATOM     14  C9   11 d         -16.628 206.515 111.130  0.00  0.00     0.000 A 
ATOM     15  C10  11 d         -16.663 206.004 112.432  0.00  0.00     0.002 A 
ATOM     16  C11  11 d         -15.489 205.940 113.200  0.00  0.00     0.029 A 
ENDBRANCH   9  11
ENDBRANCH   1   9
TORSDOF 3
ENDMDL
MODEL 4
REMARK VINA RESULT:      -6.3      2.087      2.920
REMARK  3 active torsions:
REMARK  status: ('A' for Active; 'I' for Inactive)
REMARK    1  A    between atoms: C1_1  and  N1_2 
REMARK    2  A    between atoms: C1_1  and  N2_9 
REMARK    3  A    between atoms: N2_9  and  C6_10 
ROOT
ATOM      1  C1   11 d         -13.402 206.594 115.062  0.00  0.00     0.174 C 
ATOM      2  S1   11 d         -14.146 207.446 115.977  0.00  0.00    -0.041 SA
ENDROOT
BRANCH   1   3
ATOM      3  N1   11 d         -11.928 206.528 115.127  0.00  0.00    -0.354 N 
ATOM      4  C2   11 d         -11.164 206.332 113.847  0.00  0.00     0.151 C 
ATOM      5  C3   11 d         -10.713 207.665 113.230  0.00  0.00     0.187 C 
ATOM      6  O1   11 d         -10.017 208.491 114.204  0.00  0.00    -0.388 OA
ATOM      7  C4   11 d         -10.874 208.791 115.342  0.00  0.00     0.187 C 
ATOM      8  C5   11 d         -11.287 207.506 116.065  0.00  0.00     0.151 C 
ENDBRANCH   1   3
BRANCH   1   9
ATOM      9  N2   11 d         -14.012 205.770 113.999  0.00  0.00    -0.333 N 
ATOM     10  H9   11 d         -13.873 204.713 114.144  0.00  0.00     0.168 HD
BRANCH   9  11
ATOM     11  C6   11 d         -14.781 206.147 112.787  0.00  0.00     0.034 A 
ATOM     12  C7   11 d         -14.027 206.578 111.671  0.00  0.00     0.029 A 
ATOM     13  C8   11 d         -14.648 206.951 110.470  0.00  0.00     0.002 A 
ATOM     14  C9   11 d         -16.042 206.902 110.358  0.00  0.00     0.000 A 
ATOM     15  C10  11 d         -16.811 206.482 111.449  0.00  0.00     0.002 A 
ATOM     16  C11  11 d         -16.191 206.106 112.652  0.00  0.00     0.029 A 
ENDBRANCH   9  11
ENDBRANCH   1   9
TORSDOF 3
ENDMDL
MODEL 5
REMARK VINA RESULT:      -6.2      2.020      2.689
REMARK  3 active torsions:
REMARK  status: ('A' for Active; 'I' for Inactive)
REMARK    1  A    between atoms: C1_1  and  N1_2 
REMARK    2  A    between atoms: C1_1  and  N2_9 
REMARK    3  A    between atoms: N2_9  and  C6_10 
ROOT
ATOM      1  C1   11 d         -14.477 207.258 115.512  0.00  0.00     0.174 C 
ATOM      2  S1   11 d         -14.508 208.703 115.346  0.00  0.00    -0.041 SA
ENDROOT
BRANCH   1   3
ATOM      3  N1   11 d         -14.251 206.658 116.842  0.00  0.00    -0.354 N 
ATOM      4  C2   11 d         -13.935 205.191 116.920  0.00  0.00     0.151 C 
ATOM      5  C3   11 d         -12.422 204.923 116.945  0.00  0.00     0.187 C 
ATOM      6  O1   11 d         -11.760 205.717 117.968  0.00  0.00    -0.388 OA
ATOM      7  C4   11 d         -11.959 207.140 117.734  0.00  0.00     0.187 C 
ATOM      8  C5   11 d         -13.447 207.497 117.790  0.00  0.00     0.151 C 
ENDBRANCH   1   3
BRANCH   1   9
ATOM      9  N2   11 d         -14.629 206.285 114.411  0.00  0.00    -0.333 N 
ATOM     10  H9   11 d         -14.542 205.261 114.731  0.00  0.00     0.168 HD
BRANCH   9  11
ATOM     11  C6   11 d         -14.883 206.476 112.962  0.00  0.00     0.034 A 
ATOM     12  C7   11 d         -16.220 206.321 112.531  0.00  0.00     0.029 A 
ATOM     13  C8   11 d         -16.577 206.487 111.184  0.00  0.00     0.002 A 
ATOM     14  C9   11 d         -15.601 206.809 110.236  0.00  0.00     0.000 A 
ATOM     15  C10  11 d         -14.268 206.964 110.637  0.00  0.00     0.002 A 
ATOM     16  C11  11 d         -13.910 206.801 111.984  0.00  0.00     0.029 A 
ENDBRANCH   9  11
ENDBRANCH   1   9
TORSDOF 3
ENDMDL
MODEL 6
REMARK VINA RESULT:      -6.2      3.938      5.111
REMARK  3 active torsions:
REMARK  status: ('A' for Active; 'I' for Inactive)
REMARK    1  A    between atoms: C1_1  and  N1_2 
REMARK    2  A    between atoms: C1_1  and  N2_9 
REMARK    3  A    between atoms: N2_9  and  C6_10 
ROOT
ATOM      1  C1   11 d          -9.798 208.655 114.430  0.00  0.00     0.174 C 
ATOM      2  S1   11 d         -10.495 208.943 115.675  0.00  0.00    -0.041 SA
ENDROOT
BRANCH   1   3
ATOM      3  N1   11 d          -8.744 209.561 113.931  0.00  0.00    -0.354 N 
ATOM      4  C2   11 d          -7.479 209.695 114.733  0.00  0.00     0.151 C 
ATOM      5  C3   11 d          -6.380 208.738 114.246  0.00  0.00     0.187 C 
ATOM      6  O1   11 d          -6.175 208.853 112.810  0.00  0.00    -0.388 OA
ATOM      7  C4   11 d          -7.396 208.539 112.082  0.00  0.00     0.187 C 
ATOM      8  C5   11 d          -8.515 209.518 112.450  0.00  0.00     0.151 C 
ENDBRANCH   1   3
BRANCH   1   9
ATOM      9  N2   11 d         -10.084 207.498 113.558  0.00  0.00    -0.333 N 
ATOM     10  H9   11 d          -9.208 206.927 113.305  0.00  0.00     0.168 HD
BRANCH   9  11
ATOM     11  C6   11 d         -11.356 206.993 112.985  0.00  0.00     0.034 A 
ATOM     12  C7   11 d         -11.538 207.178 111.595  0.00  0.00     0.029 A 
ATOM     13  C8   11 d         -12.700 206.732 110.946  0.00  0.00     0.002 A 
ATOM     14  C9   11 d         -13.707 206.092 111.675  0.00  0.00     0.000 A 
ATOM     15  C10  11 d         -13.552 205.900 113.053  0.00  0.00     0.002 A 
ATOM     16  C11  11 d         -12.390 206.343 113.704  0.00  0.00     0.029 A 
ENDBRANCH   9  11
ENDBRANCH   1   9
TORSDOF 3
ENDMDL
MODEL 7
REMARK VINA RESULT:      -6.1      2.486      3.656
REMARK  3 active torsions:
REMARK  status: ('A' for Active; 'I' for Inactive)
REMARK    1  A    between atoms: C1_1  and  N1_2 
REMARK    2  A    between atoms: C1_1  and  N2_9 
REMARK    3  A    between atoms: N2_9  and  C6_10 
ROOT
ATOM      1  C1   11 d         -11.690 207.135 115.844  0.00  0.00     0.174 C 
ATOM      2  S1   11 d         -10.710 207.680 116.771  0.00  0.00    -0.041 SA
ENDROOT
BRANCH   1   3
ATOM      3  N1   11 d         -13.131 207.176 116.162  0.00  0.00    -0.354 N 
ATOM      4  C2   11 d         -13.955 208.302 115.603  0.00  0.00     0.151 C 
ATOM      5  C3   11 d         -14.631 207.923 114.276  0.00  0.00     0.187 C 
ATOM      6  O1   11 d         -15.360 206.669 114.392  0.00  0.00    -0.388 OA
ATOM      7  C4   11 d         -14.469 205.581 114.767  0.00  0.00     0.187 C 
ATOM      8  C5   11 d         -13.829 205.849 116.132  0.00  0.00     0.151 C 
ENDBRANCH   1   3
BRANCH   1   9
ATOM      9  N2   11 d         -11.358 206.483 114.561  0.00  0.00    -0.333 N 
ATOM     10  H9   11 d         -11.357 205.409 114.615  0.00  0.00     0.168 HD
BRANCH   9  11
ATOM     11  C6   11 d         -11.037 207.050 113.228  0.00  0.00     0.034 A 
ATOM     12  C7   11 d         -11.823 206.597 112.144  0.00  0.00     0.029 A 
ATOM     13  C8   11 d         -11.613 207.071 110.841  0.00  0.00     0.002 A 
ATOM     14  C9   11 d         -10.607 208.011 110.592  0.00  0.00     0.000 A 
ATOM     15  C10  11 d          -9.812 208.473 111.647  0.00  0.00     0.002 A 
ATOM     16  C11  11 d         -10.023 208.001 112.952  0.00  0.00     0.029 A 
ENDBRANCH   9  11
ENDBRANCH   1   9
TORSDOF 3
ENDMDL
MODEL 8
REMARK VINA RESULT:      -6.0      1.684      2.301
REMARK  3 active torsions:
REMARK  status: ('A' for Active; 'I' for Inactive)
REMARK    1  A    between atoms: C1_1  and  N1_2 
REMARK    2  A    between atoms: C1_1  and  N2_9 
REMARK    3  A    between atoms: N2_9  and  C6_10 
ROOT
ATOM      1  C1   11 d         -12.786 206.929 114.956  0.00  0.00     0.174 C 
ATOM      2  S1   11 d         -12.636 208.371 114.833  0.00  0.00    -0.041 SA
ENDROOT
BRANCH   1   3
ATOM      3  N1   11 d         -12.422 206.239 116.210  0.00  0.00    -0.354 N 
ATOM      4  C2   11 d         -11.210 206.715 116.962  0.00  0.00     0.151 C 
ATOM      5  C3   11 d         -11.569 207.735 118.054  0.00  0.00     0.187 C 
ATOM      6  O1   11 d         -12.631 207.237 118.915  0.00  0.00    -0.388 OA
ATOM      7  C4   11 d         -13.837 206.960 118.149  0.00  0.00     0.187 C 
ATOM      8  C5   11 d         -13.576 205.878 117.097  0.00  0.00     0.151 C 
ENDBRANCH   1   3
BRANCH   1   9
ATOM      9  N2   11 d         -13.266 206.042 113.878  0.00  0.00    -0.333 N 
ATOM     10  H9   11 d         -12.674 205.151 113.762  0.00  0.00     0.168 HD
BRANCH   9  11
ATOM     11  C6   11 d         -14.413 206.165 112.944  0.00  0.00     0.034 A 
ATOM     12  C7   11 d         -14.105 206.518 111.611  0.00  0.00     0.029 A 
ATOM     13  C8   11 d         -15.110 206.654 110.641  0.00  0.00     0.002 A 
ATOM     14  C9   11 d         -16.449 206.442 110.986  0.00  0.00     0.000 A 
ATOM     15  C10  11 d         -16.780 206.095 112.301  0.00  0.00     0.002 A 
ATOM     16  C11  11 d         -15.776 205.956 113.272  0.00  0.00     0.029 A 
ENDBRANCH   9  11
ENDBRANCH   1   9
TORSDOF 3
ENDMDL
MODEL 9
REMARK VINA RESULT:      -5.9      1.653      1.895
REMARK  3 active torsions:
REMARK  status: ('A' for Active; 'I' for Inactive)
REMARK    1  A    between atoms: C1_1  and  N1_2 
REMARK    2  A    between atoms: C1_1  and  N2_9 
REMARK    3  A    between atoms: N2_9  and  C6_10 
ROOT
ATOM      1  C1   11 d         -12.314 207.201 114.200  0.00  0.00     0.174 C 
ATOM      2  S1   11 d         -11.580 205.962 114.409  0.00  0.00    -0.041 SA
ENDROOT
BRANCH   1   3
ATOM      3  N1   11 d         -12.419 208.204 115.278  0.00  0.00    -0.354 N 
ATOM      4  C2   11 d         -13.375 207.941 116.408  0.00  0.00     0.151 C 
ATOM      5  C3   11 d         -12.687 207.262 117.604  0.00  0.00     0.187 C 
ATOM      6  O1   11 d         -11.491 207.985 118.007  0.00  0.00    -0.388 OA
ATOM      7  C4   11 d         -10.529 208.053 116.917  0.00  0.00     0.187 C 
ATOM      8  C5   11 d         -11.117 208.805 115.719  0.00  0.00     0.151 C 
ENDBRANCH   1   3
BRANCH   1   9
ATOM      9  N2   11 d         -13.025 207.554 112.955  0.00  0.00    -0.333 N 
ATOM     10  H9   11 d         -12.498 208.270 112.349  0.00  0.00     0.168 HD
BRANCH   9  11
ATOM     11  C6   11 d         -14.322 207.090 112.402  0.00  0.00     0.034 A 
ATOM     12  C7   11 d         -15.219 206.493 113.317  0.00  0.00     0.029 A 
ATOM     13  C8   11 d         -16.477 206.025 112.906  0.00  0.00     0.002 A 
ATOM     14  C9   11 d         -16.865 206.144 111.567  0.00  0.00     0.000 A 
ATOM     15  C10  11 d         -15.993 206.728 110.641  0.00  0.00     0.002 A 
ATOM     16  C11  11 d         -14.735 207.199 111.051  0.00  0.00     0.029 A 
ENDBRANCH   9  11
ENDBRANCH   1   9
TORSDOF 3
ENDMDL
MODEL 10
REMARK VINA RESULT:      -5.9      3.019      3.976
REMARK  3 active torsions:
REMARK  status: ('A' for Active; 'I' for Inactive)
REMARK    1  A    between atoms: C1_1  and  N1_2 
REMARK    2  A    between atoms: C1_1  and  N2_9 
REMARK    3  A    between atoms: N2_9  and  C6_10 
ROOT
ATOM      1  C1   11 d         -12.600 206.571 115.518  0.00  0.00     0.174 C 
ATOM      2  S1   11 d         -13.896 205.966 115.250  0.00  0.00    -0.041 SA
ENDROOT
BRANCH   1   3
ATOM      3  N1   11 d         -12.391 207.401 116.721  0.00  0.00    -0.354 N 
ATOM      4  C2   11 d         -13.511 207.510 117.717  0.00  0.00     0.151 C 
ATOM      5  C3   11 d         -13.381 206.480 118.851  0.00  0.00     0.187 C 
ATOM      6  O1   11 d         -12.058 206.521 119.454  0.00  0.00    -0.388 OA
ATOM      7  C4   11 d         -11.026 206.234 118.469  0.00  0.00     0.187 C 
ATOM      8  C5   11 d         -11.036 207.281 117.351  0.00  0.00     0.151 C 
ENDBRANCH   1   3
BRANCH   1   9
ATOM      9  N2   11 d         -11.421 206.450 114.637  0.00  0.00    -0.333 N 
ATOM     10  H9   11 d         -10.612 205.895 115.079  0.00  0.00     0.168 HD
BRANCH   9  11
ATOM     11  C6   11 d         -11.168 206.951 113.263  0.00  0.00     0.034 A 
ATOM     12  C7   11 d         -10.150 207.922 113.123  0.00  0.00     0.029 A 
ATOM     13  C8   11 d          -9.821 208.459 111.870  0.00  0.00     0.002 A 
ATOM     14  C9   11 d         -10.507 208.038 110.726  0.00  0.00     0.000 A 
ATOM     15  C10  11 d         -11.522 207.082 110.838  0.00  0.00     0.002 A 
ATOM     16  C11  11 d         -11.851 206.541 112.091  0.00  0.00     0.029 A 
ENDBRANCH   9  11
ENDBRANCH   1   9
TORSDOF 3
ENDMDL
