MODEL 1
REMARK VINA RESULT:      -8.4      0.000      0.000
REMARK  3 active torsions:
REMARK  status: ('A' for Active; 'I' for Inactive)
REMARK    1  A    between atoms: N1_5  and  C4_6 
REMARK    2  A    between atoms: C10_13  and  C11_14 
REMARK    3  A    between atoms: C14_17  and  O1_18 
ROOT
ATOM      1  C1   11 d          -9.870 208.254 111.208  0.00  0.00     0.264 A 
ATOM      2  C2   11 d         -10.287 208.032 112.612  0.00  0.00     0.077 A 
ATOM      3  S1   11 d         -11.968 207.354 112.683  0.00  0.00    -0.046 SA
ATOM      4  C3   11 d         -12.022 207.360 110.859  0.00  0.00     0.174 A 
ATOM      5  N1   11 d         -13.008 206.944 110.098  0.00  0.00    -0.225 NA
ATOM      6  N2   11 d         -10.819 207.881 110.252  0.00  0.00    -0.301 N 
ATOM      7  C10  11 d          -9.603 208.276 113.754  0.00  0.00     0.036 C 
ATOM      8  O2   11 d          -8.748 208.744 110.851  0.00  0.00    -0.267 OA
ATOM      9  H6   11 d         -10.648 207.983 109.195  0.00  0.00     0.171 HD
ENDROOT
BRANCH   7  10
ATOM     10  C11  11 d          -8.203 208.752 113.843  0.00  0.00    -0.035 A 
ATOM     11  C12  11 d          -7.844 209.863 114.636  0.00  0.00     0.014 A 
ATOM     12  C13  11 d          -6.506 210.279 114.707  0.00  0.00     0.037 A 
ATOM     13  C14  11 d          -5.520 209.620 113.956  0.00  0.00     0.068 A 
ATOM     14  C16  11 d          -5.872 208.517 113.163  0.00  0.00     0.037 A 
ATOM     15  C17  11 d          -7.210 208.098 113.088  0.00  0.00     0.014 A 
BRANCH  13  16
ATOM     16  O1   11 d          -4.154 209.970 114.121  0.00  0.00    -0.356 OA
ATOM     17  C15  11 d          -3.353 209.316 113.106  0.00  0.00     0.210 C 
ENDBRANCH  13  16
ENDBRANCH   7  10
BRANCH   5  18
ATOM     18  C4   11 d         -14.233 206.469 110.697  0.00  0.00     0.059 A 
ATOM     19  C5   11 d         -14.347 205.171 111.240  0.00  0.00     0.031 A 
ATOM     20  C6   11 d         -15.547 204.759 111.839  0.00  0.00     0.002 A 
ATOM     21  C7   11 d         -16.634 205.642 111.912  0.00  0.00     0.000 A 
ATOM     22  C8   11 d         -16.520 206.941 111.395  0.00  0.00     0.002 A 
ATOM     23  C9   11 d         -15.320 207.355 110.797  0.00  0.00     0.031 A 
ENDBRANCH   5  18
TORSDOF 3
ENDMDL
MODEL 2
REMARK VINA RESULT:      -8.4      2.714      8.783
REMARK  3 active torsions:
REMARK  status: ('A' for Active; 'I' for Inactive)
REMARK    1  A    between atoms: N1_5  and  C4_6 
REMARK    2  A    between atoms: C10_13  and  C11_14 
REMARK    3  A    between atoms: C14_17  and  O1_18 
ROOT
ATOM      1  C1   11 d          -9.829 208.393 111.915  0.00  0.00     0.264 A 
ATOM      2  C2   11 d         -10.168 207.976 113.295  0.00  0.00     0.077 A 
ATOM      3  S1   11 d          -8.803 208.342 114.430  0.00  0.00    -0.046 SA
ATOM      4  C3   11 d          -7.869 209.063 113.038  0.00  0.00     0.174 A 
ATOM      5  N1   11 d          -6.679 209.617 113.089  0.00  0.00    -0.225 NA
ATOM      6  N2   11 d          -8.574 208.992 111.779  0.00  0.00    -0.301 N 
ATOM      7  C10  11 d         -11.296 207.385 113.755  0.00  0.00     0.036 C 
ATOM      8  O2   11 d         -10.587 208.239 110.901  0.00  0.00    -0.267 OA
ATOM      9  H6   11 d          -8.199 209.347 110.835  0.00  0.00     0.171 HD
ENDROOT
BRANCH   7  10
ATOM     10  C11  11 d         -12.514 207.101 112.960  0.00  0.00    -0.035 A 
ATOM     11  C12  11 d         -12.526 206.124 111.942  0.00  0.00     0.014 A 
ATOM     12  C13  11 d         -13.700 205.872 111.217  0.00  0.00     0.037 A 
ATOM     13  C14  11 d         -14.862 206.618 111.471  0.00  0.00     0.068 A 
ATOM     14  C16  11 d         -14.853 207.593 112.480  0.00  0.00     0.037 A 
ATOM     15  C17  11 d         -13.680 207.850 113.206  0.00  0.00     0.014 A 
BRANCH  13  16
ATOM     16  O1   11 d         -16.076 206.280 110.818  0.00  0.00    -0.356 OA
ATOM     17  C15  11 d         -17.124 206.086 111.799  0.00  0.00     0.210 C 
ENDBRANCH  13  16
ENDBRANCH   7  10
BRANCH   5  18
ATOM     18  C4   11 d          -5.948 209.647 114.333  0.00  0.00     0.059 A 
ATOM     19  C5   11 d          -6.218 210.601 115.338  0.00  0.00     0.031 A 
ATOM     20  C6   11 d          -5.503 210.577 116.546  0.00  0.00     0.002 A 
ATOM     21  C7   11 d          -4.526 209.594 116.763  0.00  0.00     0.000 A 
ATOM     22  C8   11 d          -4.269 208.629 115.778  0.00  0.00     0.002 A 
ATOM     23  C9   11 d          -4.984 208.651 114.570  0.00  0.00     0.031 A 
ENDBRANCH   5  18
TORSDOF 3
ENDMDL
MODEL 3
REMARK VINA RESULT:      -8.2      6.732      8.353
REMARK  3 active torsions:
REMARK  status: ('A' for Active; 'I' for Inactive)
REMARK    1  A    between atoms: N1_5  and  C4_6 
REMARK    2  A    between atoms: C10_13  and  C11_14 
REMARK    3  A    between atoms: C14_17  and  O1_18 
ROOT
ATOM      1  C1   11 d         -13.446 207.580 116.650  0.00  0.00     0.264 A 
ATOM      2  C2   11 d         -13.444 206.109 116.481  0.00  0.00     0.077 A 
ATOM      3  S1   11 d         -13.861 205.283 118.041  0.00  0.00    -0.046 SA
ATOM      4  C3   11 d         -14.057 206.918 118.827  0.00  0.00     0.174 A 
ATOM      5  N1   11 d         -14.412 207.160 120.068  0.00  0.00    -0.225 NA
ATOM      6  N2   11 d         -13.787 208.019 117.932  0.00  0.00    -0.301 N 
ATOM      7  C10  11 d         -13.171 205.377 115.376  0.00  0.00     0.036 C 
ATOM      8  O2   11 d         -13.165 208.418 115.731  0.00  0.00    -0.267 OA
ATOM      9  H6   11 d         -13.832 209.061 118.195  0.00  0.00     0.171 HD
ENDROOT
BRANCH   7  10
ATOM     10  C11  11 d         -12.892 205.916 114.024  0.00  0.00    -0.035 A 
ATOM     11  C12  11 d         -11.600 206.334 113.642  0.00  0.00     0.014 A 
ATOM     12  C13  11 d         -11.370 206.828 112.349  0.00  0.00     0.037 A 
ATOM     13  C14  11 d         -12.432 206.949 111.439  0.00  0.00     0.068 A 
ATOM     14  C16  11 d         -13.719 206.537 111.816  0.00  0.00     0.037 A 
ATOM     15  C17  11 d         -13.955 206.045 113.109  0.00  0.00     0.014 A 
BRANCH  13  16
ATOM     16  O1   11 d         -12.174 207.338 110.099  0.00  0.00    -0.356 OA
ATOM     17  C15  11 d         -10.811 207.815 109.978  0.00  0.00     0.210 C 
ENDBRANCH  13  16
ENDBRANCH   7  10
BRANCH   5  18
ATOM     18  C4   11 d         -14.635 206.065 120.982  0.00  0.00     0.059 A 
ATOM     19  C5   11 d         -13.576 205.444 121.679  0.00  0.00     0.031 A 
ATOM     20  C6   11 d         -13.839 204.401 122.581  0.00  0.00     0.002 A 
ATOM     21  C7   11 d         -15.159 203.981 122.802  0.00  0.00     0.000 A 
ATOM     22  C8   11 d         -16.218 204.609 122.130  0.00  0.00     0.002 A 
ATOM     23  C9   11 d         -15.957 205.653 121.229  0.00  0.00     0.031 A 
ENDBRANCH   5  18
TORSDOF 3
ENDMDL
MODEL 4
REMARK VINA RESULT:      -8.1      3.289      9.001
REMARK  3 active torsions:
REMARK  status: ('A' for Active; 'I' for Inactive)
REMARK    1  A    between atoms: N1_5  and  C4_6 
REMARK    2  A    between atoms: C10_13  and  C11_14 
REMARK    3  A    between atoms: C14_17  and  O1_18 
ROOT
ATOM      1  C1   11 d         -11.112 208.458 114.833  0.00  0.00     0.264 A 
ATOM      2  C2   11 d         -10.651 207.806 113.587  0.00  0.00     0.077 A 
ATOM      3  S1   11 d          -8.857 207.986 113.393  0.00  0.00    -0.046 SA
ATOM      4  C3   11 d          -8.799 208.877 114.985  0.00  0.00     0.174 A 
ATOM      5  N1   11 d          -7.730 209.348 115.586  0.00  0.00    -0.225 NA
ATOM      6  N2   11 d         -10.096 209.038 115.598  0.00  0.00    -0.301 N 
ATOM      7  C10  11 d         -11.374 207.155 112.646  0.00  0.00     0.036 C 
ATOM      8  O2   11 d         -12.326 208.514 115.220  0.00  0.00    -0.267 OA
ATOM      9  H6   11 d         -10.287 209.542 116.530  0.00  0.00     0.171 HD
ENDROOT
BRANCH   7  10
ATOM     10  C11  11 d         -12.826 206.867 112.713  0.00  0.00    -0.035 A 
ATOM     11  C12  11 d         -13.745 207.469 111.827  0.00  0.00     0.014 A 
ATOM     12  C13  11 d         -15.112 207.164 111.910  0.00  0.00     0.037 A 
ATOM     13  C14  11 d         -15.582 206.290 112.902  0.00  0.00     0.068 A 
ATOM     14  C16  11 d         -14.672 205.691 113.787  0.00  0.00     0.037 A 
ATOM     15  C17  11 d         -13.304 205.995 113.709  0.00  0.00     0.014 A 
BRANCH  13  16
ATOM     16  O1   11 d         -16.945 205.894 112.908  0.00  0.00    -0.356 OA
ATOM     17  C15  11 d         -17.606 206.388 111.718  0.00  0.00     0.210 C 
ENDBRANCH  13  16
ENDBRANCH   7  10
BRANCH   5  18
ATOM     18  C4   11 d          -6.437 209.236 114.956  0.00  0.00     0.059 A 
ATOM     19  C5   11 d          -5.799 210.341 114.351  0.00  0.00     0.031 A 
ATOM     20  C6   11 d          -4.528 210.195 113.774  0.00  0.00     0.002 A 
ATOM     21  C7   11 d          -3.881 208.951 113.809  0.00  0.00     0.000 A 
ATOM     22  C8   11 d          -4.499 207.854 114.428  0.00  0.00     0.002 A 
ATOM     23  C9   11 d          -5.769 207.999 115.007  0.00  0.00     0.031 A 
ENDBRANCH   5  18
TORSDOF 3
ENDMDL
MODEL 5
REMARK VINA RESULT:      -8.0      4.836      9.326
REMARK  3 active torsions:
REMARK  status: ('A' for Active; 'I' for Inactive)
REMARK    1  A    between atoms: N1_5  and  C4_6 
REMARK    2  A    between atoms: C10_13  and  C11_14 
REMARK    3  A    between atoms: C14_17  and  O1_18 
ROOT
ATOM      1  C1   11 d         -12.008 206.633 116.425  0.00  0.00     0.264 A 
ATOM      2  C2   11 d         -11.290 207.673 115.653  0.00  0.00     0.077 A 
ATOM      3  S1   11 d          -9.957 208.402 116.644  0.00  0.00    -0.046 SA
ATOM      4  C3   11 d         -10.388 207.273 118.011  0.00  0.00     0.174 A 
ATOM      5  N1   11 d          -9.787 207.179 119.175  0.00  0.00    -0.225 NA
ATOM      6  N2   11 d         -11.509 206.413 117.712  0.00  0.00    -0.301 N 
ATOM      7  C10  11 d         -11.516 208.109 114.392  0.00  0.00     0.036 C 
ATOM      8  O2   11 d         -13.007 205.967 115.995  0.00  0.00    -0.267 OA
ATOM      9  H6   11 d         -11.931 205.684 118.381  0.00  0.00     0.171 HD
ENDROOT
BRANCH   7  10
ATOM     10  C11  11 d         -12.514 207.553 113.447  0.00  0.00    -0.035 A 
ATOM     11  C12  11 d         -12.164 206.592 112.476  0.00  0.00     0.014 A 
ATOM     12  C13  11 d         -13.137 206.078 111.605  0.00  0.00     0.037 A 
ATOM     13  C14  11 d         -14.458 206.548 111.666  0.00  0.00     0.068 A 
ATOM     14  C16  11 d         -14.810 207.507 112.628  0.00  0.00     0.037 A 
ATOM     15  C17  11 d         -13.840 208.025 113.499  0.00  0.00     0.014 A 
BRANCH  13  16
ATOM     16  O1   11 d         -15.461 205.943 110.865  0.00  0.00    -0.356 OA
ATOM     17  C15  11 d         -16.769 206.213 111.425  0.00  0.00     0.210 C 
ENDBRANCH  13  16
ENDBRANCH   7  10
BRANCH   5  18
ATOM     18  C4   11 d          -8.698 208.069 119.501  0.00  0.00     0.059 A 
ATOM     19  C5   11 d          -8.905 209.287 120.184  0.00  0.00     0.031 A 
ATOM     20  C6   11 d          -7.814 210.109 120.507  0.00  0.00     0.002 A 
ATOM     21  C7   11 d          -6.513 209.716 120.162  0.00  0.00     0.000 A 
ATOM     22  C8   11 d          -6.298 208.496 119.504  0.00  0.00     0.002 A 
ATOM     23  C9   11 d          -7.387 207.672 119.182  0.00  0.00     0.031 A 
ENDBRANCH   5  18
TORSDOF 3
ENDMDL
MODEL 6
REMARK VINA RESULT:      -7.9      8.266     10.112
REMARK  3 active torsions:
REMARK  status: ('A' for Active; 'I' for Inactive)
REMARK    1  A    between atoms: N1_5  and  C4_6 
REMARK    2  A    between atoms: C10_13  and  C11_14 
REMARK    3  A    between atoms: C14_17  and  O1_18 
ROOT
ATOM      1  C1   11 d         -14.131 207.108 119.027  0.00  0.00     0.264 A 
ATOM      2  C2   11 d         -14.245 205.731 118.495  0.00  0.00     0.077 A 
ATOM      3  S1   11 d         -13.750 205.674 116.751  0.00  0.00    -0.046 SA
ATOM      4  C3   11 d         -13.380 207.459 116.822  0.00  0.00     0.174 A 
ATOM      5  N1   11 d         -12.904 208.205 115.851  0.00  0.00    -0.225 NA
ATOM      6  N2   11 d         -13.653 208.050 118.112  0.00  0.00    -0.301 N 
ATOM      7  C10  11 d         -14.660 204.606 119.122  0.00  0.00     0.036 C 
ATOM      8  O2   11 d         -14.434 207.457 120.216  0.00  0.00    -0.267 OA
ATOM      9  H6   11 d         -13.516 209.086 118.363  0.00  0.00     0.171 HD
ENDROOT
BRANCH   7  10
ATOM     10  C11  11 d         -15.017 204.491 120.556  0.00  0.00    -0.035 A 
ATOM     11  C12  11 d         -14.041 204.272 121.550  0.00  0.00     0.014 A 
ATOM     12  C13  11 d         -14.413 204.181 122.900  0.00  0.00     0.037 A 
ATOM     13  C14  11 d         -15.765 204.266 123.268  0.00  0.00     0.068 A 
ATOM     14  C16  11 d         -16.740 204.481 122.281  0.00  0.00     0.037 A 
ATOM     15  C17  11 d         -16.372 204.570 120.930  0.00  0.00     0.014 A 
BRANCH  13  16
ATOM     16  O1   11 d         -16.124 204.291 124.640  0.00  0.00    -0.356 OA
ATOM     17  C15  11 d         -17.565 204.376 124.770  0.00  0.00     0.210 C 
ENDBRANCH  13  16
ENDBRANCH   7  10
BRANCH   5  18
ATOM     18  C4   11 d         -12.677 207.633 114.545  0.00  0.00     0.059 A 
ATOM     19  C5   11 d         -13.674 207.627 113.546  0.00  0.00     0.031 A 
ATOM     20  C6   11 d         -13.402 207.086 112.280  0.00  0.00     0.002 A 
ATOM     21  C7   11 d         -12.132 206.562 111.999  0.00  0.00     0.000 A 
ATOM     22  C8   11 d         -11.129 206.585 112.980  0.00  0.00     0.002 A 
ATOM     23  C9   11 d         -11.399 207.127 114.246  0.00  0.00     0.031 A 
ENDBRANCH   5  18
TORSDOF 3
ENDMDL
MODEL 7
REMARK VINA RESULT:      -7.8      8.295     10.116
REMARK  3 active torsions:
REMARK  status: ('A' for Active; 'I' for Inactive)
REMARK    1  A    between atoms: N1_5  and  C4_6 
REMARK    2  A    between atoms: C10_13  and  C11_14 
REMARK    3  A    between atoms: C14_17  and  O1_18 
ROOT
ATOM      1  C1   11 d         -14.125 207.066 119.092  0.00  0.00     0.264 A 
ATOM      2  C2   11 d         -14.231 205.698 118.534  0.00  0.00     0.077 A 
ATOM      3  S1   11 d         -13.716 205.671 116.796  0.00  0.00    -0.046 SA
ATOM      4  C3   11 d         -13.348 207.455 116.902  0.00  0.00     0.174 A 
ATOM      5  N1   11 d         -12.861 208.218 115.950  0.00  0.00    -0.225 NA
ATOM      6  N2   11 d         -13.636 208.023 118.199  0.00  0.00    -0.301 N 
ATOM      7  C10  11 d         -14.653 204.561 119.136  0.00  0.00     0.036 C 
ATOM      8  O2   11 d         -14.442 207.393 120.283  0.00  0.00    -0.267 OA
ATOM      9  H6   11 d         -13.503 209.055 118.470  0.00  0.00     0.171 HD
ENDROOT
BRANCH   7  10
ATOM     10  C11  11 d         -15.028 204.422 120.563  0.00  0.00    -0.035 A 
ATOM     11  C12  11 d         -14.062 204.194 121.566  0.00  0.00     0.014 A 
ATOM     12  C13  11 d         -14.451 204.079 122.910  0.00  0.00     0.037 A 
ATOM     13  C14  11 d         -15.808 204.148 123.261  0.00  0.00     0.068 A 
ATOM     14  C16  11 d         -16.772 204.371 122.266  0.00  0.00     0.037 A 
ATOM     15  C17  11 d         -16.388 204.484 120.921  0.00  0.00     0.014 A 
BRANCH  13  16
ATOM     16  O1   11 d         -16.185 204.148 124.629  0.00  0.00    -0.356 OA
ATOM     17  C15  11 d         -17.561 204.580 124.761  0.00  0.00     0.210 C 
ENDBRANCH  13  16
ENDBRANCH   7  10
BRANCH   5  18
ATOM     18  C4   11 d         -12.617 207.670 114.638  0.00  0.00     0.059 A 
ATOM     19  C5   11 d         -11.378 207.093 114.285  0.00  0.00     0.031 A 
ATOM     20  C6   11 d         -11.192 206.545 113.006  0.00  0.00     0.002 A 
ATOM     21  C7   11 d         -12.244 206.557 112.079  0.00  0.00     0.000 A 
ATOM     22  C8   11 d         -13.485 207.108 112.430  0.00  0.00     0.002 A 
ATOM     23  C9   11 d         -13.673 207.655 113.709  0.00  0.00     0.031 A 
ENDBRANCH   5  18
TORSDOF 3
ENDMDL
MODEL 8
REMARK VINA RESULT:      -7.7      5.200      5.961
REMARK  3 active torsions:
REMARK  status: ('A' for Active; 'I' for Inactive)
REMARK    1  A    between atoms: N1_5  and  C4_6 
REMARK    2  A    between atoms: C10_13  and  C11_14 
REMARK    3  A    between atoms: C14_17  and  O1_18 
ROOT
ATOM      1  C1   11 d         -13.216 207.481 117.594  0.00  0.00     0.264 A 
ATOM      2  C2   11 d         -12.123 207.064 116.687  0.00  0.00     0.077 A 
ATOM      3  S1   11 d         -12.750 206.797 115.006  0.00  0.00    -0.046 SA
ATOM      4  C3   11 d         -14.413 207.287 115.574  0.00  0.00     0.174 A 
ATOM      5  N1   11 d         -15.502 207.376 114.844  0.00  0.00    -0.225 NA
ATOM      6  N2   11 d         -14.466 207.607 116.982  0.00  0.00    -0.301 N 
ATOM      7  C10  11 d         -10.813 206.864 116.964  0.00  0.00     0.036 C 
ATOM      8  O2   11 d         -13.079 207.715 118.840  0.00  0.00    -0.267 OA
ATOM      9  H6   11 d         -15.348 207.907 117.520  0.00  0.00     0.171 HD
ENDROOT
BRANCH   7  10
ATOM     10  C11  11 d         -10.152 207.117 118.266  0.00  0.00    -0.035 A 
ATOM     11  C12  11 d         -10.049 206.116 119.254  0.00  0.00     0.014 A 
ATOM     12  C13  11 d          -9.406 206.386 120.472  0.00  0.00     0.037 A 
ATOM     13  C14  11 d          -8.897 207.668 120.732  0.00  0.00     0.068 A 
ATOM     14  C16  11 d          -9.000 208.668 119.753  0.00  0.00     0.037 A 
ATOM     15  C17  11 d          -9.644 208.403 118.535  0.00  0.00     0.014 A 
BRANCH  13  16
ATOM     16  O1   11 d          -8.146 207.903 121.913  0.00  0.00    -0.356 OA
ATOM     17  C15  11 d          -7.751 209.296 121.976  0.00  0.00     0.210 C 
ENDBRANCH  13  16
ENDBRANCH   7  10
BRANCH   5  18
ATOM     18  C4   11 d         -15.468 207.009 113.449  0.00  0.00     0.059 A 
ATOM     19  C5   11 d         -14.542 207.579 112.547  0.00  0.00     0.031 A 
ATOM     20  C6   11 d         -14.524 207.173 111.203  0.00  0.00     0.002 A 
ATOM     21  C7   11 d         -15.418 206.190 110.755  0.00  0.00     0.000 A 
ATOM     22  C8   11 d         -16.325 205.603 111.651  0.00  0.00     0.002 A 
ATOM     23  C9   11 d         -16.343 206.007 112.995  0.00  0.00     0.031 A 
ENDBRANCH   5  18
TORSDOF 3
ENDMDL
MODEL 9
REMARK VINA RESULT:      -7.6      3.681      4.397
REMARK  3 active torsions:
REMARK  status: ('A' for Active; 'I' for Inactive)
REMARK    1  A    between atoms: N1_5  and  C4_6 
REMARK    2  A    between atoms: C10_13  and  C11_14 
REMARK    3  A    between atoms: C14_17  and  O1_18 
ROOT
ATOM      1  C1   11 d         -10.245 208.289 115.045  0.00  0.00     0.264 A 
ATOM      2  C2   11 d         -11.106 207.485 115.941  0.00  0.00     0.077 A 
ATOM      3  S1   11 d         -12.538 206.831 115.040  0.00  0.00    -0.046 SA
ATOM      4  C3   11 d         -11.909 207.617 113.518  0.00  0.00     0.174 A 
ATOM      5  N1   11 d         -12.447 207.561 112.321  0.00  0.00    -0.225 NA
ATOM      6  N2   11 d         -10.684 208.356 113.720  0.00  0.00    -0.301 N 
ATOM      7  C10  11 d         -10.954 207.220 117.260  0.00  0.00     0.036 C 
ATOM      8  O2   11 d          -9.181 208.893 115.406  0.00  0.00    -0.267 OA
ATOM      9  H6   11 d         -10.154 208.901 112.959  0.00  0.00     0.171 HD
ENDROOT
BRANCH   7  10
ATOM     10  C11  11 d          -9.800 207.622 118.099  0.00  0.00    -0.035 A 
ATOM     11  C12  11 d          -8.580 206.914 118.073  0.00  0.00     0.014 A 
ATOM     12  C13  11 d          -7.503 207.329 118.872  0.00  0.00     0.037 A 
ATOM     13  C14  11 d          -7.645 208.428 119.733  0.00  0.00     0.068 A 
ATOM     14  C16  11 d          -8.858 209.134 119.764  0.00  0.00     0.037 A 
ATOM     15  C17  11 d          -9.938 208.720 118.969  0.00  0.00     0.014 A 
BRANCH  13  16
ATOM     16  O1   11 d          -6.521 208.915 120.450  0.00  0.00    -0.356 OA
ATOM     17  C15  11 d          -5.912 210.010 119.724  0.00  0.00     0.210 C 
ENDBRANCH  13  16
ENDBRANCH   7  10
BRANCH   5  18
ATOM     18  C4   11 d         -13.697 206.868 112.122  0.00  0.00     0.059 A 
ATOM     19  C5   11 d         -14.941 207.530 112.200  0.00  0.00     0.031 A 
ATOM     20  C6   11 d         -16.133 206.824 111.972  0.00  0.00     0.002 A 
ATOM     21  C7   11 d         -16.089 205.459 111.651  0.00  0.00     0.000 A 
ATOM     22  C8   11 d         -14.855 204.800 111.549  0.00  0.00     0.002 A 
ATOM     23  C9   11 d         -13.663 205.505 111.776  0.00  0.00     0.031 A 
ENDBRANCH   5  18
TORSDOF 3
ENDMDL
MODEL 10
REMARK VINA RESULT:      -7.4      7.235      9.360
REMARK  3 active torsions:
REMARK  status: ('A' for Active; 'I' for Inactive)
REMARK    1  A    between atoms: N1_5  and  C4_6 
REMARK    2  A    between atoms: C10_13  and  C11_14 
REMARK    3  A    between atoms: C14_17  and  O1_18 
ROOT
ATOM      1  C1   11 d         -14.551 205.146 116.891  0.00  0.00     0.264 A 
ATOM      2  C2   11 d         -13.657 206.300 117.135  0.00  0.00     0.077 A 
ATOM      3  S1   11 d         -13.318 206.486 118.907  0.00  0.00    -0.046 SA
ATOM      4  C3   11 d         -14.338 205.009 119.233  0.00  0.00     0.174 A 
ATOM      5  N1   11 d         -14.566 204.450 120.400  0.00  0.00    -0.225 NA
ATOM      6  N2   11 d         -14.917 204.438 118.039  0.00  0.00    -0.301 N 
ATOM      7  C10  11 d         -13.123 207.169 116.245  0.00  0.00     0.036 C 
ATOM      8  O2   11 d         -14.980 204.787 115.745  0.00  0.00    -0.267 OA
ATOM      9  H6   11 d         -15.558 203.575 118.009  0.00  0.00     0.171 HD
ENDROOT
BRANCH   7  10
ATOM     10  C11  11 d         -13.252 207.092 114.771  0.00  0.00    -0.035 A 
ATOM     11  C12  11 d         -14.361 207.640 114.092  0.00  0.00     0.014 A 
ATOM     12  C13  11 d         -14.444 207.560 112.694  0.00  0.00     0.037 A 
ATOM     13  C14  11 d         -13.446 206.897 111.963  0.00  0.00     0.068 A 
ATOM     14  C16  11 d         -12.343 206.348 112.634  0.00  0.00     0.037 A 
ATOM     15  C17  11 d         -12.257 206.424 114.033  0.00  0.00     0.014 A 
BRANCH  13  16
ATOM     16  O1   11 d         -13.476 206.920 110.544  0.00  0.00    -0.356 OA
ATOM     17  C15  11 d         -14.794 207.306 110.085  0.00  0.00     0.210 C 
ENDBRANCH  13  16
ENDBRANCH   7  10
BRANCH   5  18
ATOM     18  C4   11 d         -14.033 205.043 121.602  0.00  0.00     0.059 A 
ATOM     19  C5   11 d         -14.767 205.974 122.369  0.00  0.00     0.031 A 
ATOM     20  C6   11 d         -14.222 206.505 123.548  0.00  0.00     0.002 A 
ATOM     21  C7   11 d         -12.949 206.102 123.976  0.00  0.00     0.000 A 
ATOM     22  C8   11 d         -12.223 205.160 123.231  0.00  0.00     0.002 A 
ATOM     23  C9   11 d         -12.767 204.627 122.053  0.00  0.00     0.031 A 
ENDBRANCH   5  18
TORSDOF 3
ENDMDL
