MODEL 1
REMARK VINA RESULT:      -7.6      0.000      0.000
REMARK  1 active torsions:
REMARK  status: ('A' for Active; 'I' for Inactive)
REMARK    1  A    between atoms: C1_1  and  C2_2 
ROOT
ATOM      1  C2   11 d          -9.905 208.286 111.948  0.00  0.00     0.041 A 
ATOM      2  C3   11 d         -10.786 207.775 112.919  0.00  0.00     0.020 A 
ATOM      3  C4   11 d         -11.972 207.137 112.539  0.00  0.00     0.030 A 
ATOM      4  C5   11 d         -12.303 206.985 111.177  0.00  0.00     0.030 A 
ATOM      5  N1   11 d         -13.509 206.390 110.807  0.00  0.00    -0.378 N 
ATOM      6  C6   11 d         -14.381 207.041 109.892  0.00  0.00     0.150 C 
ATOM      7  C7   11 d         -15.717 207.270 110.605  0.00  0.00     0.252 C 
ATOM      8  N2   11 d         -16.231 206.001 111.208  0.00  0.00    -0.072 N 
ATOM      9  C8   11 d         -15.224 205.319 112.080  0.00  0.00     0.252 C 
ATOM     10  C9   11 d         -13.896 205.129 111.338  0.00  0.00     0.150 C 
ATOM     11  C10  11 d         -11.409 207.477 110.204  0.00  0.00     0.030 A 
ATOM     12  C11  11 d         -10.226 208.125 110.585  0.00  0.00     0.020 A 
ATOM     13  H7   11 d         -17.105 206.220 111.789  0.00  0.00     0.277 HD
ATOM     14  H8   11 d         -16.528 205.334 110.422  0.00  0.00     0.277 HD
ENDROOT
BRANCH   1  15
ATOM     15  C1   11 d          -8.666 208.993 112.356  0.00  0.00     0.209 C 
ATOM     16  O1   11 d          -7.498 208.581 111.929  0.00  0.00    -0.644 OA
ATOM     17  O2   11 d          -8.727 210.028 113.156  0.00  0.00    -0.644 OA
ENDBRANCH   1  15
TORSDOF 1
ENDMDL
MODEL 2
REMARK VINA RESULT:      -6.4      2.770      3.806
REMARK  1 active torsions:
REMARK  status: ('A' for Active; 'I' for Inactive)
REMARK    1  A    between atoms: C1_1  and  C2_2 
ROOT
ATOM      1  C2   11 d          -9.703 208.666 113.736  0.00  0.00     0.041 A 
ATOM      2  C3   11 d         -10.586 207.950 112.906  0.00  0.00     0.020 A 
ATOM      3  C4   11 d         -11.846 207.562 113.375  0.00  0.00     0.030 A 
ATOM      4  C5   11 d         -12.260 207.890 114.683  0.00  0.00     0.030 A 
ATOM      5  N1   11 d         -13.498 207.459 115.159  0.00  0.00    -0.378 N 
ATOM      6  C6   11 d         -13.592 206.772 116.399  0.00  0.00     0.150 C 
ATOM      7  C7   11 d         -14.197 205.392 116.122  0.00  0.00     0.252 C 
ATOM      8  N2   11 d         -15.468 205.507 115.341  0.00  0.00    -0.072 N 
ATOM      9  C8   11 d         -15.317 206.328 114.099  0.00  0.00     0.252 C 
ATOM     10  C9   11 d         -14.688 207.690 114.415  0.00  0.00     0.150 C 
ATOM     11  C10  11 d         -11.383 208.627 115.506  0.00  0.00     0.030 A 
ATOM     12  C11  11 d         -10.117 209.006 115.039  0.00  0.00     0.020 A 
ATOM     13  H7   11 d         -15.802 204.525 115.072  0.00  0.00     0.277 HD
ATOM     14  H8   11 d         -16.225 205.943 115.963  0.00  0.00     0.277 HD
ENDROOT
BRANCH   1  15
ATOM     15  C1   11 d          -8.354 209.045 113.246  0.00  0.00     0.209 C 
ATOM     16  O1   11 d          -7.669 209.982 113.852  0.00  0.00    -0.644 OA
ATOM     17  O2   11 d          -7.840 208.452 112.197  0.00  0.00    -0.644 OA
ENDBRANCH   1  15
TORSDOF 1
ENDMDL
MODEL 3
REMARK VINA RESULT:      -6.2      3.747      4.657
REMARK  1 active torsions:
REMARK  status: ('A' for Active; 'I' for Inactive)
REMARK    1  A    between atoms: C1_1  and  C2_2 
ROOT
ATOM      1  C2   11 d         -12.875 207.118 116.703  0.00  0.00     0.041 A 
ATOM      2  C3   11 d         -14.144 207.259 116.110  0.00  0.00     0.020 A 
ATOM      3  C4   11 d         -14.367 206.828 114.797  0.00  0.00     0.030 A 
ATOM      4  C5   11 d         -13.330 206.236 114.048  0.00  0.00     0.030 A 
ATOM      5  N1   11 d         -13.547 205.853 112.724  0.00  0.00    -0.378 N 
ATOM      6  C6   11 d         -12.662 206.279 111.698  0.00  0.00     0.150 C 
ATOM      7  C7   11 d         -13.479 207.084 110.683  0.00  0.00     0.252 C 
ATOM      8  N2   11 d         -14.684 206.319 110.232  0.00  0.00    -0.072 N 
ATOM      9  C8   11 d         -15.515 205.817 111.369  0.00  0.00     0.252 C 
ATOM     10  C9   11 d         -14.657 205.037 112.373  0.00  0.00     0.150 C 
ATOM     11  C10  11 d         -12.065 206.075 114.651  0.00  0.00     0.030 A 
ATOM     12  C11  11 d         -11.839 206.516 115.962  0.00  0.00     0.020 A 
ATOM     13  H7   11 d         -15.287 206.953 109.612  0.00  0.00     0.277 HD
ATOM     14  H8   11 d         -14.368 205.489 109.630  0.00  0.00     0.277 HD
ENDROOT
BRANCH   1  15
ATOM     15  C1   11 d         -12.634 207.608 118.083  0.00  0.00     0.209 C 
ATOM     16  O1   11 d         -11.438 208.001 118.447  0.00  0.00    -0.644 OA
ATOM     17  O2   11 d         -13.612 207.643 118.954  0.00  0.00    -0.644 OA
ENDBRANCH   1  15
TORSDOF 1
ENDMDL
MODEL 4
REMARK VINA RESULT:      -6.2      4.775      6.119
REMARK  1 active torsions:
REMARK  status: ('A' for Active; 'I' for Inactive)
REMARK    1  A    between atoms: C1_1  and  C2_2 
ROOT
ATOM      1  C2   11 d         -14.730 207.034 112.068  0.00  0.00     0.041 A 
ATOM      2  C3   11 d         -15.499 207.027 113.248  0.00  0.00     0.020 A 
ATOM      3  C4   11 d         -14.881 206.898 114.498  0.00  0.00     0.030 A 
ATOM      4  C5   11 d         -13.480 206.784 114.600  0.00  0.00     0.030 A 
ATOM      5  N1   11 d         -12.877 206.609 115.845  0.00  0.00    -0.378 N 
ATOM      6  C6   11 d         -11.954 205.548 116.055  0.00  0.00     0.150 C 
ATOM      7  C7   11 d         -12.511 204.660 117.172  0.00  0.00     0.252 C 
ATOM      8  N2   11 d         -12.860 205.470 118.381  0.00  0.00    -0.072 N 
ATOM      9  C8   11 d         -13.755 206.628 118.068  0.00  0.00     0.252 C 
ATOM     10  C9   11 d         -13.174 207.477 116.931  0.00  0.00     0.150 C 
ATOM     11  C10  11 d         -12.710 206.815 113.420  0.00  0.00     0.030 A 
ATOM     12  C11  11 d         -13.329 206.933 112.167  0.00  0.00     0.020 A 
ATOM     13  H7   11 d         -13.347 204.837 119.096  0.00  0.00     0.277 HD
ATOM     14  H8   11 d         -11.958 205.832 118.834  0.00  0.00     0.277 HD
ENDROOT
BRANCH   1  15
ATOM     15  C1   11 d         -15.391 207.136 110.744  0.00  0.00     0.209 C 
ATOM     16  O1   11 d         -14.793 207.745 109.750  0.00  0.00    -0.644 OA
ATOM     17  O2   11 d         -16.584 206.626 110.557  0.00  0.00    -0.644 OA
ENDBRANCH   1  15
TORSDOF 1
ENDMDL
MODEL 5
REMARK VINA RESULT:      -6.0      4.734      7.655
REMARK  1 active torsions:
REMARK  status: ('A' for Active; 'I' for Inactive)
REMARK    1  A    between atoms: C1_1  and  C2_2 
ROOT
ATOM      1  C2   11 d         -10.080 208.259 112.925  0.00  0.00     0.041 A 
ATOM      2  C3   11 d          -9.866 208.524 114.292  0.00  0.00     0.020 A 
ATOM      3  C4   11 d          -8.622 208.984 114.741  0.00  0.00     0.030 A 
ATOM      4  C5   11 d          -7.565 209.201 113.834  0.00  0.00     0.030 A 
ATOM      5  N1   11 d          -6.315 209.614 114.295  0.00  0.00    -0.378 N 
ATOM      6  C6   11 d          -5.140 208.912 113.914  0.00  0.00     0.150 C 
ATOM      7  C7   11 d          -4.472 208.396 115.192  0.00  0.00     0.252 C 
ATOM      8  N2   11 d          -4.281 209.499 116.184  0.00  0.00    -0.072 N 
ATOM      9  C8   11 d          -5.540 210.259 116.461  0.00  0.00     0.252 C 
ATOM     10  C9   11 d          -6.189 210.738 115.157  0.00  0.00     0.150 C 
ATOM     11  C10  11 d          -7.788 208.958 112.463  0.00  0.00     0.030 A 
ATOM     12  C11  11 d          -9.030 208.487 112.015  0.00  0.00     0.020 A 
ATOM     13  H7   11 d          -3.915 209.083 117.103  0.00  0.00     0.277 HD
ATOM     14  H8   11 d          -3.533 210.175 115.819  0.00  0.00     0.277 HD
ENDROOT
BRANCH   1  15
ATOM     15  C1   11 d         -11.389 207.739 112.459  0.00  0.00     0.209 C 
ATOM     16  O1   11 d         -11.498 207.185 111.277  0.00  0.00    -0.644 OA
ATOM     17  O2   11 d         -12.450 207.837 113.220  0.00  0.00    -0.644 OA
ENDBRANCH   1  15
TORSDOF 1
ENDMDL
MODEL 6
REMARK VINA RESULT:      -6.0      2.983      4.672
REMARK  1 active torsions:
REMARK  status: ('A' for Active; 'I' for Inactive)
REMARK    1  A    between atoms: C1_1  and  C2_2 
ROOT
ATOM      1  C2   11 d          -6.186 209.443 113.769  0.00  0.00     0.041 A 
ATOM      2  C3   11 d          -6.374 208.686 112.597  0.00  0.00     0.020 A 
ATOM      3  C4   11 d          -7.663 208.374 112.150  0.00  0.00     0.030 A 
ATOM      4  C5   11 d          -8.798 208.819 112.858  0.00  0.00     0.030 A 
ATOM      5  N1   11 d         -10.078 208.464 112.434  0.00  0.00    -0.378 N 
ATOM      6  C6   11 d         -11.002 207.883 113.343  0.00  0.00     0.150 C 
ATOM      7  C7   11 d         -11.385 206.503 112.801  0.00  0.00     0.252 C 
ATOM      8  N2   11 d         -11.837 206.589 111.377  0.00  0.00    -0.072 N 
ATOM      9  C8   11 d         -10.858 207.301 110.497  0.00  0.00     0.252 C 
ATOM     10  C9   11 d         -10.483 208.666 111.086  0.00  0.00     0.150 C 
ATOM     11  C10  11 d          -8.609 209.597 114.020  0.00  0.00     0.030 A 
ATOM     12  C11  11 d          -7.318 209.901 114.472  0.00  0.00     0.020 A 
ATOM     13  H7   11 d         -11.989 205.598 110.999  0.00  0.00     0.277 HD
ATOM     14  H8   11 d         -12.781 207.096 111.338  0.00  0.00     0.277 HD
ENDROOT
BRANCH   1  15
ATOM     15  C1   11 d          -4.818 209.743 114.257  0.00  0.00     0.209 C 
ATOM     16  O1   11 d          -3.871 210.071 113.414  0.00  0.00    -0.644 OA
ATOM     17  O2   11 d          -4.540 209.672 115.536  0.00  0.00    -0.644 OA
ENDBRANCH   1  15
TORSDOF 1
ENDMDL
MODEL 7
REMARK VINA RESULT:      -5.7      4.259      5.260
REMARK  1 active torsions:
REMARK  status: ('A' for Active; 'I' for Inactive)
REMARK    1  A    between atoms: C1_1  and  C2_2 
ROOT
ATOM      1  C2   11 d         -12.935 206.452 117.158  0.00  0.00     0.041 A 
ATOM      2  C3   11 d         -12.311 205.783 116.088  0.00  0.00     0.020 A 
ATOM      3  C4   11 d         -12.785 205.936 114.780  0.00  0.00     0.030 A 
ATOM      4  C5   11 d         -13.888 206.771 114.507  0.00  0.00     0.030 A 
ATOM      5  N1   11 d         -14.384 206.881 113.208  0.00  0.00    -0.378 N 
ATOM      6  C6   11 d         -15.767 206.686 112.947  0.00  0.00     0.150 C 
ATOM      7  C7   11 d         -15.896 205.518 111.965  0.00  0.00     0.252 C 
ATOM      8  N2   11 d         -15.028 205.725 110.764  0.00  0.00    -0.072 N 
ATOM      9  C8   11 d         -13.604 206.023 111.118  0.00  0.00     0.252 C 
ATOM     10  C9   11 d         -13.520 207.181 112.119  0.00  0.00     0.150 C 
ATOM     11  C10  11 d         -14.498 207.458 115.576  0.00  0.00     0.030 A 
ATOM     12  C11  11 d         -14.030 207.297 116.888  0.00  0.00     0.020 A 
ATOM     13  H7   11 d         -15.058 204.843 110.155  0.00  0.00     0.277 HD
ATOM     14  H8   11 d         -15.423 206.532 110.178  0.00  0.00     0.277 HD
ENDROOT
BRANCH   1  15
ATOM     15  C1   11 d         -12.451 206.260 118.548  0.00  0.00     0.209 C 
ATOM     16  O1   11 d         -13.205 206.597 119.564  0.00  0.00    -0.644 OA
ATOM     17  O2   11 d         -11.261 205.760 118.771  0.00  0.00    -0.644 OA
ENDBRANCH   1  15
TORSDOF 1
ENDMDL
MODEL 8
REMARK VINA RESULT:      -5.4      4.527      5.461
REMARK  1 active torsions:
REMARK  status: ('A' for Active; 'I' for Inactive)
REMARK    1  A    between atoms: C1_1  and  C2_2 
ROOT
ATOM      1  C2   11 d         -11.973 206.306 117.723  0.00  0.00     0.041 A 
ATOM      2  C3   11 d         -11.864 205.367 116.680  0.00  0.00     0.020 A 
ATOM      3  C4   11 d         -12.117 205.742 115.356  0.00  0.00     0.030 A 
ATOM      4  C5   11 d         -12.474 207.068 115.039  0.00  0.00     0.030 A 
ATOM      5  N1   11 d         -12.771 207.423 113.723  0.00  0.00    -0.378 N 
ATOM      6  C6   11 d         -13.978 208.106 113.417  0.00  0.00     0.150 C 
ATOM      7  C7   11 d         -14.772 207.234 112.440  0.00  0.00     0.252 C 
ATOM      8  N2   11 d         -13.932 206.835 111.268  0.00  0.00    -0.072 N 
ATOM      9  C8   11 d         -12.631 206.212 111.667  0.00  0.00     0.252 C 
ATOM     10  C9   11 d         -11.879 207.105 112.662  0.00  0.00     0.150 C 
ATOM     11  C10  11 d         -12.561 208.014 116.082  0.00  0.00     0.030 A 
ATOM     12  C11  11 d         -12.318 207.635 117.409  0.00  0.00     0.020 A 
ATOM     13  H7   11 d         -14.482 206.139 110.665  0.00  0.00     0.277 HD
ATOM     14  H8   11 d         -13.739 207.700 110.663  0.00  0.00     0.277 HD
ENDROOT
BRANCH   1  15
ATOM     15  C1   11 d         -11.738 205.895 119.130  0.00  0.00     0.209 C 
ATOM     16  O1   11 d         -10.542 205.533 119.523  0.00  0.00    -0.644 OA
ATOM     17  O2   11 d         -12.726 205.882 119.990  0.00  0.00    -0.644 OA
ENDBRANCH   1  15
TORSDOF 1
ENDMDL
MODEL 9
REMARK VINA RESULT:      -5.3      4.112      6.175
REMARK  1 active torsions:
REMARK  status: ('A' for Active; 'I' for Inactive)
REMARK    1  A    between atoms: C1_1  and  C2_2 
ROOT
ATOM      1  C2   11 d          -4.457 209.054 113.599  0.00  0.00     0.041 A 
ATOM      2  C3   11 d          -5.179 208.296 112.658  0.00  0.00     0.020 A 
ATOM      3  C4   11 d          -6.573 208.407 112.574  0.00  0.00     0.030 A 
ATOM      4  C5   11 d          -7.277 209.286 113.422  0.00  0.00     0.030 A 
ATOM      5  N1   11 d          -8.669 209.355 113.365  0.00  0.00    -0.378 N 
ATOM      6  C6   11 d          -9.445 209.224 114.548  0.00  0.00     0.150 C 
ATOM      7  C7   11 d         -10.368 208.015 114.368  0.00  0.00     0.252 C 
ATOM      8  N2   11 d         -11.138 208.111 113.089  0.00  0.00    -0.072 N 
ATOM      9  C8   11 d         -10.264 208.349 111.898  0.00  0.00     0.252 C 
ATOM     10  C9   11 d          -9.340 209.551 112.127  0.00  0.00     0.150 C 
ATOM     11  C10  11 d          -6.550 210.061 114.349  0.00  0.00     0.030 A 
ATOM     12  C11  11 d          -5.156 209.942 114.440  0.00  0.00     0.020 A 
ATOM     13  H7   11 d         -11.687 207.202 112.944  0.00  0.00     0.277 HD
ATOM     14  H8   11 d         -11.853 208.907 113.168  0.00  0.00     0.277 HD
ENDROOT
BRANCH   1  15
ATOM     15  C1   11 d          -2.984 208.907 113.708  0.00  0.00     0.209 C 
ATOM     16  O1   11 d          -2.208 209.262 112.714  0.00  0.00    -0.644 OA
ATOM     17  O2   11 d          -2.446 208.413 114.795  0.00  0.00    -0.644 OA
ENDBRANCH   1  15
TORSDOF 1
ENDMDL
MODEL 10
REMARK VINA RESULT:      -5.0      5.852      6.852
REMARK  1 active torsions:
REMARK  status: ('A' for Active; 'I' for Inactive)
REMARK    1  A    between atoms: C1_1  and  C2_2 
ROOT
ATOM      1  C2   11 d         -13.989 205.698 118.817  0.00  0.00     0.041 A 
ATOM      2  C3   11 d         -14.089 204.706 117.823  0.00  0.00     0.020 A 
ATOM      3  C4   11 d         -14.055 205.052 116.467  0.00  0.00     0.030 A 
ATOM      4  C5   11 d         -13.910 206.397 116.071  0.00  0.00     0.030 A 
ATOM      5  N1   11 d         -13.926 206.739 114.719  0.00  0.00    -0.378 N 
ATOM      6  C6   11 d         -14.794 207.759 114.244  0.00  0.00     0.150 C 
ATOM      7  C7   11 d         -15.723 207.132 113.201  0.00  0.00     0.252 C 
ATOM      8  N2   11 d         -14.943 206.400 112.155  0.00  0.00    -0.072 N 
ATOM      9  C8   11 d         -13.978 205.412 112.732  0.00  0.00     0.252 C 
ATOM     10  C9   11 d         -13.083 206.073 113.787  0.00  0.00     0.150 C 
ATOM     11  C10  11 d         -13.788 207.388 117.067  0.00  0.00     0.030 A 
ATOM     12  C11  11 d         -13.832 207.042 118.425  0.00  0.00     0.020 A 
ATOM     13  H7   11 d         -15.625 205.884 111.508  0.00  0.00     0.277 HD
ATOM     14  H8   11 d         -14.407 207.109 111.554  0.00  0.00     0.277 HD
ENDROOT
BRANCH   1  15
ATOM     15  C1   11 d         -14.059 205.331 120.253  0.00  0.00     0.209 C 
ATOM     16  O1   11 d         -13.228 205.863 121.114  0.00  0.00    -0.644 OA
ATOM     17  O2   11 d         -14.947 204.464 120.672  0.00  0.00    -0.644 OA
ENDBRANCH   1  15
TORSDOF 1
ENDMDL
