MODEL 1
REMARK VINA RESULT:     -10.2      0.000      0.000
REMARK  2 active torsions:
REMARK  status: ('A' for Active; 'I' for Inactive)
REMARK    1  A    between atoms: C13_17  and  S1_21 
REMARK    2  A    between atoms: O3_22  and  S1_21 
ROOT
ATOM      1  C1  <1> d           7.618  47.126  52.833  0.00  0.00     0.042 A 
ATOM      2  C2  <1> d           6.270  47.104  53.230  0.00  0.00     0.045 A 
ATOM      3  C3  <1> d           5.751  48.008  54.199  0.00  0.00     0.013 A 
ATOM      4  C4  <1> d           6.659  48.950  54.768  0.00  0.00     0.001 A 
ATOM      5  C5  <1> d           8.039  48.974  54.368  0.00  0.00     0.002 A 
ATOM      6  C6  <1> d           8.537  48.056  53.391  0.00  0.00     0.024 A 
ATOM      7  C7  <1> d           5.692  45.992  52.407  0.00  0.00     0.209 A 
ATOM      8  O1  <1> d           4.530  45.642  52.444  0.00  0.00    -0.285 OA
ATOM      9  C8  <1> d           6.800  45.472  51.579  0.00  0.00     0.092 A 
ATOM     10  C9  <1> d           6.886  44.478  50.648  0.00  0.00     0.071 A 
ATOM     11  C10 <1> d           8.122  44.112  49.919  0.00  0.00     0.251 A 
ATOM     12  O2  <1> d           9.214  44.653  50.096  0.00  0.00    -0.270 OA
ATOM     13  N1  <1> d           7.867  43.148  49.088  0.00  0.00    -0.281 N 
ATOM     14  N2  <1> d           7.858  46.183  51.914  0.00  0.00    -0.310 N 
ATOM     15  C11 <1> d           5.849  43.523  50.058  0.00  0.00     0.012 A 
ATOM     16  C12 <1> d           4.459  43.263  50.235  0.00  0.00     0.040 A 
ATOM     17  C13 <1> d           3.844  42.242  49.440  0.00  0.00     0.117 A 
ATOM     18  C14 <1> d           4.603  41.501  48.496  0.00  0.00     0.031 A 
ATOM     19  C15 <1> d           5.990  41.760  48.330  0.00  0.00     0.026 A 
ATOM     20  C16 <1> d           6.586  42.774  49.120  0.00  0.00     0.042 A 
ATOM     21  H5  <1> d           8.554  42.731  48.490  0.00  0.00     0.155 HD
ATOM     22  H6  <1> d           8.763  46.032  51.514  0.00  0.00     0.152 HD
ENDROOT
BRANCH  17  23
ATOM     23  S1  <1> d           2.111  41.952  49.683  0.00  0.00     0.110 S 
ATOM     24  O4  <1> d           1.688  42.613  50.898  0.00  0.00    -0.142 OA
ATOM     25  O5  <1> d           1.904  40.524  49.545  0.00  0.00    -0.142 OA
BRANCH  23  26
ATOM     26  O3  <1> d           1.456  42.599  48.517  0.00  0.00    -0.250 OA
ATOM     27  H10 <1> d           1.730  42.129  47.679  0.00  0.00     0.245 HD
ENDBRANCH  23  26
ENDBRANCH  17  23
TORSDOF 2
ENDMDL
MODEL 2
REMARK VINA RESULT:      -9.6      2.392      3.678
REMARK  2 active torsions:
REMARK  status: ('A' for Active; 'I' for Inactive)
REMARK    1  A    between atoms: C13_17  and  S1_21 
REMARK    2  A    between atoms: O3_22  and  S1_21 
ROOT
ATOM      1  C1  <1> d           7.111  46.390  53.131  0.00  0.00     0.042 A 
ATOM      2  C2  <1> d           7.877  45.985  52.024  0.00  0.00     0.045 A 
ATOM      3  C3  <1> d           9.223  46.408  51.840  0.00  0.00     0.013 A 
ATOM      4  C4  <1> d           9.778  47.275  52.829  0.00  0.00     0.001 A 
ATOM      5  C5  <1> d           8.998  47.693  53.960  0.00  0.00     0.002 A 
ATOM      6  C6  <1> d           7.647  47.253  54.123  0.00  0.00     0.024 A 
ATOM      7  C7  <1> d           6.932  45.107  51.259  0.00  0.00     0.209 A 
ATOM      8  O1  <1> d           7.208  44.541  50.222  0.00  0.00    -0.285 OA
ATOM      9  C8  <1> d           5.674  45.082  52.034  0.00  0.00     0.092 A 
ATOM     10  C9  <1> d           4.472  44.463  51.846  0.00  0.00     0.071 A 
ATOM     11  C10 <1> d           3.317  44.573  52.766  0.00  0.00     0.251 A 
ATOM     12  O2  <1> d           3.311  45.257  53.790  0.00  0.00    -0.270 OA
ATOM     13  N1  <1> d           2.336  43.848  52.320  0.00  0.00    -0.281 N 
ATOM     14  N2  <1> d           5.883  45.860  53.077  0.00  0.00    -0.310 N 
ATOM     15  C11 <1> d           3.958  43.511  50.767  0.00  0.00     0.012 A 
ATOM     16  C12 <1> d           4.467  42.927  49.571  0.00  0.00     0.040 A 
ATOM     17  C13 <1> d           3.622  42.042  48.825  0.00  0.00     0.117 A 
ATOM     18  C14 <1> d           2.303  41.753  49.266  0.00  0.00     0.031 A 
ATOM     19  C15 <1> d           1.800  42.345  50.456  0.00  0.00     0.026 A 
ATOM     20  C16 <1> d           2.646  43.216  51.186  0.00  0.00     0.042 A 
ATOM     21  H5  <1> d           1.448  43.772  52.775  0.00  0.00     0.155 HD
ATOM     22  H6  <1> d           5.183  46.038  53.770  0.00  0.00     0.152 HD
ENDROOT
BRANCH  17  23
ATOM     23  S1  <1> d           4.292  41.329  47.345  0.00  0.00     0.110 S 
ATOM     24  O4  <1> d           5.724  41.528  47.333  0.00  0.00    -0.142 OA
ATOM     25  O5  <1> d           3.497  41.833  46.243  0.00  0.00    -0.142 OA
BRANCH  23  26
ATOM     26  O3  <1> d           3.998  39.878  47.463  0.00  0.00    -0.250 OA
ATOM     27  H10 <1> d           4.762  39.419  47.916  0.00  0.00     0.245 HD
ENDBRANCH  23  26
ENDBRANCH  17  23
TORSDOF 2
ENDMDL
MODEL 3
REMARK VINA RESULT:      -9.5      2.540      4.079
REMARK  2 active torsions:
REMARK  status: ('A' for Active; 'I' for Inactive)
REMARK    1  A    between atoms: C13_17  and  S1_21 
REMARK    2  A    between atoms: O3_22  and  S1_21 
ROOT
ATOM      1  C1  <1> d           6.808  47.057  52.748  0.00  0.00     0.042 A 
ATOM      2  C2  <1> d           7.348  46.032  51.952  0.00  0.00     0.045 A 
ATOM      3  C3  <1> d           8.744  45.928  51.697  0.00  0.00     0.013 A 
ATOM      4  C4  <1> d           9.592  46.917  52.280  0.00  0.00     0.001 A 
ATOM      5  C5  <1> d           9.044  47.967  53.092  0.00  0.00     0.002 A 
ATOM      6  C6  <1> d           7.636  48.050  53.335  0.00  0.00     0.024 A 
ATOM      7  C7  <1> d           6.140  45.239  51.552  0.00  0.00     0.209 A 
ATOM      8  O1  <1> d           6.169  44.247  50.854  0.00  0.00    -0.285 OA
ATOM      9  C8  <1> d           4.983  45.901  52.190  0.00  0.00     0.092 A 
ATOM     10  C9  <1> d           3.643  45.642  52.194  0.00  0.00     0.071 A 
ATOM     11  C10 <1> d           2.632  46.450  52.916  0.00  0.00     0.251 A 
ATOM     12  O2  <1> d           2.894  47.459  53.570  0.00  0.00    -0.270 OA
ATOM     13  N1  <1> d           1.455  45.929  52.743  0.00  0.00    -0.281 N 
ATOM     14  N2  <1> d           5.477  46.937  52.838  0.00  0.00    -0.310 N 
ATOM     15  C11 <1> d           2.803  44.530  51.567  0.00  0.00     0.012 A 
ATOM     16  C12 <1> d           3.039  43.390  50.746  0.00  0.00     0.040 A 
ATOM     17  C13 <1> d           1.926  42.569  50.372  0.00  0.00     0.117 A 
ATOM     18  C14 <1> d           0.612  42.885  50.809  0.00  0.00     0.031 A 
ATOM     19  C15 <1> d           0.382  44.028  51.622  0.00  0.00     0.026 A 
ATOM     20  C16 <1> d           1.493  44.830  51.985  0.00  0.00     0.042 A 
ATOM     21  H5  <1> d           0.616  46.309  53.133  0.00  0.00     0.155 HD
ATOM     22  H6  <1> d           4.908  47.578  53.352  0.00  0.00     0.152 HD
ENDROOT
BRANCH  17  23
ATOM     23  S1  <1> d           2.260  41.154  49.356  0.00  0.00     0.110 S 
ATOM     24  O4  <1> d           2.911  41.590  48.140  0.00  0.00    -0.142 OA
ATOM     25  O5  <1> d           1.024  40.403  49.268  0.00  0.00    -0.142 OA
BRANCH  23  26
ATOM     26  O3  <1> d           3.208  40.335  50.155  0.00  0.00    -0.250 OA
ATOM     27  H10 <1> d           4.145  40.550  49.882  0.00  0.00     0.245 HD
ENDBRANCH  23  26
ENDBRANCH  17  23
TORSDOF 2
ENDMDL
MODEL 4
REMARK VINA RESULT:      -9.4      1.453      1.957
REMARK  2 active torsions:
REMARK  status: ('A' for Active; 'I' for Inactive)
REMARK    1  A    between atoms: C13_17  and  S1_21 
REMARK    2  A    between atoms: O3_22  and  S1_21 
ROOT
ATOM      1  C1  <1> d           7.482  46.907  52.895  0.00  0.00     0.042 A 
ATOM      2  C2  <1> d           6.287  47.173  53.585  0.00  0.00     0.045 A 
ATOM      3  C3  <1> d           6.199  48.179  54.587  0.00  0.00     0.013 A 
ATOM      4  C4  <1> d           7.384  48.919  54.878  0.00  0.00     0.001 A 
ATOM      5  C5  <1> d           8.608  48.649  54.178  0.00  0.00     0.002 A 
ATOM      6  C6  <1> d           8.672  47.633  53.174  0.00  0.00     0.024 A 
ATOM      7  C7  <1> d           5.323  46.194  52.984  0.00  0.00     0.209 A 
ATOM      8  O1  <1> d           4.156  46.095  53.302  0.00  0.00    -0.285 OA
ATOM      9  C8  <1> d           6.082  45.442  51.963  0.00  0.00     0.092 A 
ATOM     10  C9  <1> d           5.748  44.438  51.101  0.00  0.00     0.071 A 
ATOM     11  C10 <1> d           6.683  43.812  50.137  0.00  0.00     0.251 A 
ATOM     12  O2  <1> d           7.871  44.115  50.030  0.00  0.00    -0.270 OA
ATOM     13  N1  <1> d           6.055  42.909  49.446  0.00  0.00    -0.281 N 
ATOM     14  N2  <1> d           7.309  45.922  52.006  0.00  0.00    -0.310 N 
ATOM     15  C11 <1> d           4.434  43.712  50.819  0.00  0.00     0.012 A 
ATOM     16  C12 <1> d           3.100  43.751  51.319  0.00  0.00     0.040 A 
ATOM     17  C13 <1> d           2.126  42.868  50.748  0.00  0.00     0.117 A 
ATOM     18  C14 <1> d           2.481  41.971  49.706  0.00  0.00     0.031 A 
ATOM     19  C15 <1> d           3.815  41.933  49.217  0.00  0.00     0.026 A 
ATOM     20  C16 <1> d           4.768  42.812  49.789  0.00  0.00     0.042 A 
ATOM     21  H5  <1> d           6.486  42.350  48.737  0.00  0.00     0.155 HD
ATOM     22  H6  <1> d           8.047  45.579  51.424  0.00  0.00     0.152 HD
ENDROOT
BRANCH  17  23
ATOM     23  S1  <1> d           0.475  42.950  51.392  0.00  0.00     0.110 S 
ATOM     24  O4  <1> d          -0.367  42.040  50.647  0.00  0.00    -0.142 OA
ATOM     25  O5  <1> d           0.120  44.354  51.452  0.00  0.00    -0.142 OA
BRANCH  23  26
ATOM     26  O3  <1> d           0.595  42.474  52.793  0.00  0.00    -0.250 OA
ATOM     27  H10 <1> d           1.463  42.787  53.178  0.00  0.00     0.245 HD
ENDBRANCH  23  26
ENDBRANCH  17  23
TORSDOF 2
ENDMDL
MODEL 5
REMARK VINA RESULT:      -9.3      3.153      7.651
REMARK  2 active torsions:
REMARK  status: ('A' for Active; 'I' for Inactive)
REMARK    1  A    between atoms: C13_17  and  S1_21 
REMARK    2  A    between atoms: O3_22  and  S1_21 
ROOT
ATOM      1  C1  <1> d           3.476  41.848  49.938  0.00  0.00     0.042 A 
ATOM      2  C2  <1> d           4.693  42.087  49.277  0.00  0.00     0.045 A 
ATOM      3  C3  <1> d           5.045  41.417  48.072  0.00  0.00     0.013 A 
ATOM      4  C4  <1> d           4.108  40.475  47.549  0.00  0.00     0.001 A 
ATOM      5  C5  <1> d           2.865  40.226  48.222  0.00  0.00     0.002 A 
ATOM      6  C6  <1> d           2.533  40.913  49.432  0.00  0.00     0.024 A 
ATOM      7  C7  <1> d           5.355  43.116  50.144  0.00  0.00     0.209 A 
ATOM      8  O1  <1> d           6.443  43.606  49.922  0.00  0.00    -0.285 OA
ATOM      9  C8  <1> d           4.415  43.387  51.252  0.00  0.00     0.092 A 
ATOM     10  C9  <1> d           4.460  44.217  52.335  0.00  0.00     0.071 A 
ATOM     11  C10 <1> d           3.385  44.338  53.346  0.00  0.00     0.251 A 
ATOM     12  O2  <1> d           2.344  43.682  53.331  0.00  0.00    -0.270 OA
ATOM     13  N1  <1> d           3.720  45.228  54.232  0.00  0.00    -0.281 N 
ATOM     14  N2  <1> d           3.380  42.598  51.042  0.00  0.00    -0.310 N 
ATOM     15  C11 <1> d           5.494  45.234  52.815  0.00  0.00     0.012 A 
ATOM     16  C12 <1> d           6.772  45.696  52.385  0.00  0.00     0.040 A 
ATOM     17  C13 <1> d           7.429  46.713  53.151  0.00  0.00     0.117 A 
ATOM     18  C14 <1> d           6.822  47.250  54.317  0.00  0.00     0.031 A 
ATOM     19  C15 <1> d           5.551  46.779  54.744  0.00  0.00     0.026 A 
ATOM     20  C16 <1> d           4.911  45.775  53.976  0.00  0.00     0.042 A 
ATOM     21  H5  <1> d           3.150  45.475  55.016  0.00  0.00     0.155 HD
ATOM     22  H6  <1> d           2.591  42.563  51.656  0.00  0.00     0.152 HD
ENDROOT
BRANCH  17  23
ATOM     23  S1  <1> d           9.015  47.267  52.581  0.00  0.00     0.110 S 
ATOM     24  O4  <1> d           9.849  47.566  53.723  0.00  0.00    -0.142 OA
ATOM     25  O5  <1> d           8.765  48.301  51.596  0.00  0.00    -0.142 OA
BRANCH  23  26
ATOM     26  O3  <1> d           9.579  46.102  51.851  0.00  0.00    -0.250 OA
ATOM     27  H10 <1> d           8.919  45.351  51.862  0.00  0.00     0.245 HD
ENDBRANCH  23  26
ENDBRANCH  17  23
TORSDOF 2
ENDMDL
MODEL 6
REMARK VINA RESULT:      -9.3      2.379      6.776
REMARK  2 active torsions:
REMARK  status: ('A' for Active; 'I' for Inactive)
REMARK    1  A    between atoms: C13_17  and  S1_21 
REMARK    2  A    between atoms: O3_22  and  S1_21 
ROOT
ATOM      1  C1  <1> d           4.630  41.752  48.884  0.00  0.00     0.042 A 
ATOM      2  C2  <1> d           3.521  42.101  49.673  0.00  0.00     0.045 A 
ATOM      3  C3  <1> d           2.284  41.403  49.592  0.00  0.00     0.013 A 
ATOM      4  C4  <1> d           2.201  40.323  48.664  0.00  0.00     0.001 A 
ATOM      5  C5  <1> d           3.331  39.964  47.853  0.00  0.00     0.002 A 
ATOM      6  C6  <1> d           4.565  40.680  47.954  0.00  0.00     0.024 A 
ATOM      7  C7  <1> d           4.030  43.257  50.482  0.00  0.00     0.209 A 
ATOM      8  O1  <1> d           3.376  43.859  51.308  0.00  0.00    -0.285 OA
ATOM      9  C8  <1> d           5.436  43.459  50.073  0.00  0.00     0.092 A 
ATOM     10  C9  <1> d           6.402  44.344  50.453  0.00  0.00     0.071 A 
ATOM     11  C10 <1> d           7.778  44.374  49.904  0.00  0.00     0.251 A 
ATOM     12  O2  <1> d           8.188  43.616  49.025  0.00  0.00    -0.270 OA
ATOM     13  N1  <1> d           8.459  45.314  50.488  0.00  0.00    -0.281 N 
ATOM     14  N2  <1> d           5.670  42.553  49.144  0.00  0.00    -0.310 N 
ATOM     15  C11 <1> d           6.427  45.465  51.491  0.00  0.00     0.012 A 
ATOM     16  C12 <1> d           5.510  46.041  52.418  0.00  0.00     0.040 A 
ATOM     17  C13 <1> d           5.958  47.118  53.249  0.00  0.00     0.117 A 
ATOM     18  C14 <1> d           7.288  47.606  53.152  0.00  0.00     0.031 A 
ATOM     19  C15 <1> d           8.195  47.032  52.220  0.00  0.00     0.026 A 
ATOM     20  C16 <1> d           7.740  45.965  51.406  0.00  0.00     0.042 A 
ATOM     21  H5  <1> d           9.413  45.525  50.275  0.00  0.00     0.155 HD
ATOM     22  H6  <1> d           6.550  42.471  48.675  0.00  0.00     0.152 HD
ENDROOT
BRANCH  17  23
ATOM     23  S1  <1> d           4.790  47.804  54.395  0.00  0.00     0.110 S 
ATOM     24  O4  <1> d           3.560  48.098  53.695  0.00  0.00    -0.142 OA
ATOM     25  O5  <1> d           5.476  48.868  55.101  0.00  0.00    -0.142 OA
BRANCH  23  26
ATOM     26  O3  <1> d           4.549  46.717  55.379  0.00  0.00    -0.250 OA
ATOM     27  H10 <1> d           3.941  47.049  56.099  0.00  0.00     0.245 HD
ENDBRANCH  23  26
ENDBRANCH  17  23
TORSDOF 2
ENDMDL
MODEL 7
REMARK VINA RESULT:      -9.2      3.249      6.753
REMARK  2 active torsions:
REMARK  status: ('A' for Active; 'I' for Inactive)
REMARK    1  A    between atoms: C13_17  and  S1_21 
REMARK    2  A    between atoms: O3_22  and  S1_21 
ROOT
ATOM      1  C1  <1> d           3.715  42.851  49.987  0.00  0.00     0.042 A 
ATOM      2  C2  <1> d           3.197  43.645  51.024  0.00  0.00     0.045 A 
ATOM      3  C3  <1> d           1.834  43.570  51.426  0.00  0.00     0.013 A 
ATOM      4  C4  <1> d           0.995  42.651  50.728  0.00  0.00     0.001 A 
ATOM      5  C5  <1> d           1.520  41.839  49.666  0.00  0.00     0.002 A 
ATOM      6  C6  <1> d           2.894  41.932  49.280  0.00  0.00     0.024 A 
ATOM      7  C7  <1> d           4.386  44.444  51.468  0.00  0.00     0.209 A 
ATOM      8  O1  <1> d           4.369  45.262  52.364  0.00  0.00    -0.285 OA
ATOM      9  C8  <1> d           5.515  44.007  50.621  0.00  0.00     0.092 A 
ATOM     10  C9  <1> d           6.831  44.366  50.558  0.00  0.00     0.071 A 
ATOM     11  C10 <1> d           7.815  43.790  49.613  0.00  0.00     0.251 A 
ATOM     12  O2  <1> d           7.543  42.940  48.764  0.00  0.00    -0.270 OA
ATOM     13  N1  <1> d           8.982  44.321  49.822  0.00  0.00    -0.281 N 
ATOM     14  N2  <1> d           5.017  43.104  49.801  0.00  0.00    -0.310 N 
ATOM     15  C11 <1> d           7.675  45.345  51.372  0.00  0.00     0.012 A 
ATOM     16  C12 <1> d           7.459  46.255  52.448  0.00  0.00     0.040 A 
ATOM     17  C13 <1> d           8.572  47.010  52.942  0.00  0.00     0.117 A 
ATOM     18  C14 <1> d           9.864  46.858  52.373  0.00  0.00     0.031 A 
ATOM     19  C15 <1> d          10.070  45.954  51.296  0.00  0.00     0.026 A 
ATOM     20  C16 <1> d           8.962  45.212  50.817  0.00  0.00     0.042 A 
ATOM     21  H5  <1> d           9.801  44.090  49.298  0.00  0.00     0.155 HD
ATOM     22  H6  <1> d           5.564  42.646  49.099  0.00  0.00     0.152 HD
ENDROOT
BRANCH  17  23
ATOM     23  S1  <1> d           8.266  48.127  54.286  0.00  0.00     0.110 S 
ATOM     24  O4  <1> d           7.775  49.380  53.756  0.00  0.00    -0.142 OA
ATOM     25  O5  <1> d           9.459  48.125  55.109  0.00  0.00    -0.142 OA
BRANCH  23  26
ATOM     26  O3  <1> d           7.193  47.474  55.079  0.00  0.00    -0.250 OA
ATOM     27  H10 <1> d           6.525  48.161  55.365  0.00  0.00     0.245 HD
ENDBRANCH  23  26
ENDBRANCH  17  23
TORSDOF 2
ENDMDL
MODEL 8
REMARK VINA RESULT:      -9.1      4.312      5.379
REMARK  2 active torsions:
REMARK  status: ('A' for Active; 'I' for Inactive)
REMARK    1  A    between atoms: C13_17  and  S1_21 
REMARK    2  A    between atoms: O3_22  and  S1_21 
ROOT
ATOM      1  C1  <1> d           6.579  46.605  53.116  0.00  0.00     0.042 A 
ATOM      2  C2  <1> d           6.020  47.448  54.092  0.00  0.00     0.045 A 
ATOM      3  C3  <1> d           6.711  48.587  54.593  0.00  0.00     0.013 A 
ATOM      4  C4  <1> d           8.012  48.847  54.068  0.00  0.00     0.001 A 
ATOM      5  C5  <1> d           8.588  47.986  53.073  0.00  0.00     0.002 A 
ATOM      6  C6  <1> d           7.874  46.848  52.584  0.00  0.00     0.024 A 
ATOM      7  C7  <1> d           4.682  46.825  54.354  0.00  0.00     0.209 A 
ATOM      8  O1  <1> d           3.866  47.256  55.142  0.00  0.00    -0.285 OA
ATOM      9  C8  <1> d           4.593  45.649  53.463  0.00  0.00     0.092 A 
ATOM     10  C9  <1> d           3.629  44.706  53.253  0.00  0.00     0.071 A 
ATOM     11  C10 <1> d           3.744  43.586  52.291  0.00  0.00     0.251 A 
ATOM     12  O2  <1> d           4.736  43.373  51.594  0.00  0.00    -0.270 OA
ATOM     13  N1  <1> d           2.653  42.882  52.310  0.00  0.00    -0.281 N 
ATOM     14  N2  <1> d           5.737  45.610  52.810  0.00  0.00    -0.310 N 
ATOM     15  C11 <1> d           2.230  44.511  53.835  0.00  0.00     0.012 A 
ATOM     16  C12 <1> d           1.405  45.167  54.794  0.00  0.00     0.040 A 
ATOM     17  C13 <1> d           0.097  44.640  55.050  0.00  0.00     0.117 A 
ATOM     18  C14 <1> d          -0.370  43.488  54.364  0.00  0.00     0.031 A 
ATOM     19  C15 <1> d           0.462  42.835  53.414  0.00  0.00     0.026 A 
ATOM     20  C16 <1> d           1.752  43.366  53.168  0.00  0.00     0.042 A 
ATOM     21  H5  <1> d           2.503  42.070  51.745  0.00  0.00     0.155 HD
ATOM     22  H6  <1> d           5.957  44.898  52.143  0.00  0.00     0.152 HD
ENDROOT
BRANCH  17  23
ATOM     23  S1  <1> d          -0.903  45.487  56.246  0.00  0.00     0.110 S 
ATOM     24  O4  <1> d          -0.058  46.346  57.045  0.00  0.00    -0.142 OA
ATOM     25  O5  <1> d          -1.711  44.479  56.902  0.00  0.00    -0.142 OA
BRANCH  23  26
ATOM     26  O3  <1> d          -1.828  46.322  55.436  0.00  0.00    -0.250 OA
ATOM     27  H10 <1> d          -2.464  45.731  54.942  0.00  0.00     0.245 HD
ENDBRANCH  23  26
ENDBRANCH  17  23
TORSDOF 2
ENDMDL
MODEL 9
REMARK VINA RESULT:      -8.4      3.557      5.813
REMARK  2 active torsions:
REMARK  status: ('A' for Active; 'I' for Inactive)
REMARK    1  A    between atoms: C13_17  and  S1_21 
REMARK    2  A    between atoms: O3_22  and  S1_21 
ROOT
ATOM      1  C1  <1> d           6.791  45.273  51.654  0.00  0.00     0.042 A 
ATOM      2  C2  <1> d           6.055  44.321  50.928  0.00  0.00     0.045 A 
ATOM      3  C3  <1> d           6.593  43.651  49.793  0.00  0.00     0.013 A 
ATOM      4  C4  <1> d           7.925  43.986  49.406  0.00  0.00     0.001 A 
ATOM      5  C5  <1> d           8.680  44.960  50.143  0.00  0.00     0.002 A 
ATOM      6  C6  <1> d           8.118  45.620  51.281  0.00  0.00     0.024 A 
ATOM      7  C7  <1> d           4.744  44.278  51.656  0.00  0.00     0.209 A 
ATOM      8  O1  <1> d           3.811  43.566  51.350  0.00  0.00    -0.285 OA
ATOM      9  C8  <1> d           4.864  45.234  52.777  0.00  0.00     0.092 A 
ATOM     10  C9  <1> d           4.013  45.621  53.771  0.00  0.00     0.071 A 
ATOM     11  C10 <1> d           4.340  46.617  54.818  0.00  0.00     0.251 A 
ATOM     12  O2  <1> d           5.410  47.222  54.886  0.00  0.00    -0.270 OA
ATOM     13  N1  <1> d           3.331  46.745  55.626  0.00  0.00    -0.281 N 
ATOM     14  N2  <1> d           6.070  45.756  52.672  0.00  0.00    -0.310 N 
ATOM     15  C11 <1> d           2.597  45.187  54.146  0.00  0.00     0.012 A 
ATOM     16  C12 <1> d           1.622  44.280  53.639  0.00  0.00     0.040 A 
ATOM     17  C13 <1> d           0.369  44.164  54.324  0.00  0.00     0.117 A 
ATOM     18  C14 <1> d           0.101  44.938  55.485  0.00  0.00     0.031 A 
ATOM     19  C15 <1> d           1.075  45.847  55.980  0.00  0.00     0.026 A 
ATOM     20  C16 <1> d           2.311  45.950  55.295  0.00  0.00     0.042 A 
ATOM     21  H5  <1> d           3.320  47.368  56.409  0.00  0.00     0.155 HD
ATOM     22  H6  <1> d           6.416  46.454  53.300  0.00  0.00     0.152 HD
ENDROOT
BRANCH  17  23
ATOM     23  S1  <1> d          -0.817  43.019  53.668  0.00  0.00     0.110 S 
ATOM     24  O4  <1> d          -1.082  43.355  52.287  0.00  0.00    -0.142 OA
ATOM     25  O5  <1> d          -1.917  42.974  54.610  0.00  0.00    -0.142 OA
BRANCH  23  26
ATOM     26  O3  <1> d          -0.138  41.700  53.732  0.00  0.00    -0.250 OA
ATOM     27  H10 <1> d          -0.316  41.276  54.619  0.00  0.00     0.245 HD
ENDBRANCH  23  26
ENDBRANCH  17  23
TORSDOF 2
ENDMDL
MODEL 10
REMARK VINA RESULT:      -8.3      3.139      6.934
REMARK  2 active torsions:
REMARK  status: ('A' for Active; 'I' for Inactive)
REMARK    1  A    between atoms: C13_17  and  S1_21 
REMARK    2  A    between atoms: O3_22  and  S1_21 
ROOT
ATOM      1  C1  <1> d           1.610  41.440  49.553  0.00  0.00     0.042 A 
ATOM      2  C2  <1> d           1.230  42.401  50.505  0.00  0.00     0.045 A 
ATOM      3  C3  <1> d          -0.098  42.482  51.012  0.00  0.00     0.013 A 
ATOM      4  C4  <1> d          -1.048  41.544  50.509  0.00  0.00     0.001 A 
ATOM      5  C5  <1> d          -0.665  40.562  49.534  0.00  0.00     0.002 A 
ATOM      6  C6  <1> d           0.676  40.500  49.041  0.00  0.00     0.024 A 
ATOM      7  C7  <1> d           2.500  43.161  50.747  0.00  0.00     0.209 A 
ATOM      8  O1  <1> d           2.609  44.090  51.520  0.00  0.00    -0.285 OA
ATOM      9  C8  <1> d           3.526  42.533  49.889  0.00  0.00     0.092 A 
ATOM     10  C9  <1> d           4.852  42.781  49.681  0.00  0.00     0.071 A 
ATOM     11  C10 <1> d           5.717  42.012  48.756  0.00  0.00     0.251 A 
ATOM     12  O2  <1> d           5.322  41.081  48.054  0.00  0.00    -0.270 OA
ATOM     13  N1  <1> d           6.928  42.479  48.805  0.00  0.00    -0.281 N 
ATOM     14  N2  <1> d           2.905  41.568  49.239  0.00  0.00    -0.310 N 
ATOM     15  C11 <1> d           5.821  43.793  50.289  0.00  0.00     0.012 A 
ATOM     16  C12 <1> d           5.753  44.851  51.242  0.00  0.00     0.040 A 
ATOM     17  C13 <1> d           6.948  45.580  51.546  0.00  0.00     0.117 A 
ATOM     18  C14 <1> d           8.177  45.258  50.911  0.00  0.00     0.031 A 
ATOM     19  C15 <1> d           8.236  44.206  49.956  0.00  0.00     0.026 A 
ATOM     20  C16 <1> d           7.047  43.492  49.666  0.00  0.00     0.042 A 
ATOM     21  H5  <1> d           7.685  42.119  48.259  0.00  0.00     0.155 HD
ATOM     22  H6  <1> d           3.362  40.983  48.570  0.00  0.00     0.152 HD
ENDROOT
BRANCH  17  23
ATOM     23  S1  <1> d           6.826  46.885  52.741  0.00  0.00     0.110 S 
ATOM     24  O4  <1> d           5.430  47.171  52.987  0.00  0.00    -0.142 OA
ATOM     25  O5  <1> d           7.698  47.950  52.286  0.00  0.00    -0.142 OA
BRANCH  23  26
ATOM     26  O3  <1> d           7.437  46.323  53.973  0.00  0.00    -0.250 OA
ATOM     27  H10 <1> d           8.159  46.934  54.296  0.00  0.00     0.245 HD
ENDBRANCH  23  26
ENDBRANCH  17  23
TORSDOF 2
ENDMDL
