MODEL 1
REMARK VINA RESULT:      -9.0      0.000      0.000
REMARK  6 active torsions:
REMARK  status: ('A' for Active; 'I' for Inactive)
REMARK    1  A    between atoms: C3_3  and  N1_4 
REMARK    2  A    between atoms: N1_4  and  C4_5 
REMARK    3  A    between atoms: C4_5  and  C5_6 
REMARK    4  A    between atoms: C5_6  and  C6_7 
REMARK    5  A    between atoms: C6_7  and  C7_8 
REMARK    6  A    between atoms: C20_22  and  N3_23 
ROOT
ATOM      1  C1   11 d          -9.665 208.243 113.269  0.00  0.00    -0.019 A 
ATOM      2  C2   11 d         -10.520 208.201 114.367  0.00  0.00     0.073 A 
ATOM      3  C3   11 d         -11.998 207.884 114.283  0.00  0.00     0.238 C 
ATOM      4  C14  11 d         -12.448 207.959 112.793  0.00  0.00     0.040 C 
ATOM      5  C15  11 d         -11.470 207.263 111.821  0.00  0.00     0.007 C 
ATOM      6  C16  11 d         -10.060 207.880 111.866  0.00  0.00     0.042 C 
ATOM      7  N2   11 d          -9.859 208.609 115.478  0.00  0.00    -0.250 NA
ATOM      8  C17  11 d          -8.582 208.852 115.107  0.00  0.00     0.068 A 
ATOM      9  C18  11 d          -8.429 208.618 113.754  0.00  0.00     0.003 A 
ATOM     10  C19  11 d          -7.203 208.798 113.104  0.00  0.00     0.050 A 
ATOM     11  C20  11 d          -6.082 209.235 113.863  0.00  0.00     0.103 A 
ATOM     12  C21  11 d          -6.258 209.479 115.257  0.00  0.00     0.038 A 
ATOM     13  C22  11 d          -7.506 209.288 115.886  0.00  0.00     0.035 A 
ENDROOT
BRANCH   3  14
ATOM     14  N1   11 d         -12.303 206.560 114.952  0.00  0.00    -0.061 N 
ATOM     15  H2   11 d         -12.308 205.770 114.228  0.00  0.00     0.278 HD
ATOM     16  H3   11 d         -11.502 206.329 115.629  0.00  0.00     0.278 HD
BRANCH  14  17
ATOM     17  C4   11 d         -13.580 206.506 115.757  0.00  0.00     0.183 C 
ATOM     18  C13  11 d         -14.281 207.880 115.858  0.00  0.00     0.040 C 
BRANCH  17  19
ATOM     19  C5   11 d         -14.561 205.454 115.169  0.00  0.00     0.037 C 
BRANCH  19  20
ATOM     20  C6   11 d         -15.731 206.066 114.377  0.00  0.00     0.040 C 
BRANCH  20  21
ATOM     21  C7   11 d         -15.467 206.017 112.893  0.00  0.00    -0.058 A 
ATOM     22  C8   11 d         -14.611 205.030 112.357  0.00  0.00     0.007 A 
ATOM     23  C9   11 d         -14.277 205.043 110.994  0.00  0.00     0.001 A 
ATOM     24  C10  11 d         -14.772 206.055 110.159  0.00  0.00     0.000 A 
ATOM     25  C11  11 d         -15.595 207.062 110.688  0.00  0.00     0.001 A 
ATOM     26  C12  11 d         -15.927 207.053 112.053  0.00  0.00     0.007 A 
ENDBRANCH  20  21
ENDBRANCH  19  20
ENDBRANCH  17  19
ENDBRANCH  14  17
ENDBRANCH   3  14
BRANCH  11  27
ATOM     27  N3   11 d          -4.840 209.431 113.256  0.00  0.00    -0.116 N 
ATOM     28  O1   11 d          -4.409 208.644 112.545  0.00  0.00    -0.532 OA
ATOM     29  O2   11 d          -4.094 210.387 113.607  0.00  0.00    -0.532 OA
ENDBRANCH  11  27
TORSDOF 6
ENDMDL
MODEL 2
REMARK VINA RESULT:      -8.9      4.400      6.994
REMARK  6 active torsions:
REMARK  status: ('A' for Active; 'I' for Inactive)
REMARK    1  A    between atoms: C3_3  and  N1_4 
REMARK    2  A    between atoms: N1_4  and  C4_5 
REMARK    3  A    between atoms: C4_5  and  C5_6 
REMARK    4  A    between atoms: C5_6  and  C6_7 
REMARK    5  A    between atoms: C6_7  and  C7_8 
REMARK    6  A    between atoms: C20_22  and  N3_23 
ROOT
ATOM      1  C1   11 d         -12.114 206.721 116.676  0.00  0.00    -0.019 A 
ATOM      2  C2   11 d         -12.177 207.220 115.378  0.00  0.00     0.073 A 
ATOM      3  C3   11 d         -11.243 208.277 114.827  0.00  0.00     0.238 C 
ATOM      4  C14  11 d         -10.467 208.933 116.008  0.00  0.00     0.040 C 
ATOM      5  C15  11 d          -9.929 207.910 117.032  0.00  0.00     0.007 C 
ATOM      6  C16  11 d         -11.053 207.079 117.678  0.00  0.00     0.042 C 
ATOM      7  N2   11 d         -13.264 206.716 114.745  0.00  0.00    -0.250 NA
ATOM      8  C17  11 d         -13.857 205.859 115.607  0.00  0.00     0.068 A 
ATOM      9  C18  11 d         -13.159 205.829 116.799  0.00  0.00     0.003 A 
ATOM     10  C19  11 d         -13.560 205.026 117.872  0.00  0.00     0.050 A 
ATOM     11  C20  11 d         -14.721 204.217 117.729  0.00  0.00     0.103 A 
ATOM     12  C21  11 d         -15.434 204.265 116.494  0.00  0.00     0.038 A 
ATOM     13  C22  11 d         -15.006 205.084 115.428  0.00  0.00     0.035 A 
ENDROOT
BRANCH   3  14
ATOM     14  N1   11 d         -10.349 207.696 113.751  0.00  0.00    -0.061 N 
ATOM     15  H2   11 d          -9.336 208.011 113.899  0.00  0.00     0.278 HD
ATOM     16  H3   11 d         -10.340 206.627 113.856  0.00  0.00     0.278 HD
BRANCH  14  17
ATOM     17  C4   11 d         -10.758 207.987 112.325  0.00  0.00     0.183 C 
ATOM     18  C13  11 d          -9.570 208.433 111.443  0.00  0.00     0.040 C 
BRANCH  17  19
ATOM     19  C5   11 d         -11.457 206.753 111.687  0.00  0.00     0.037 C 
BRANCH  19  20
ATOM     20  C6   11 d         -12.444 207.110 110.561  0.00  0.00     0.040 C 
BRANCH  20  21
ATOM     21  C7   11 d         -13.823 206.574 110.857  0.00  0.00    -0.058 A 
ATOM     22  C8   11 d         -14.949 207.420 110.761  0.00  0.00     0.007 A 
ATOM     23  C9   11 d         -16.220 206.959 111.136  0.00  0.00     0.001 A 
ATOM     24  C10  11 d         -16.375 205.658 111.636  0.00  0.00     0.000 A 
ATOM     25  C11  11 d         -15.257 204.820 111.770  0.00  0.00     0.001 A 
ATOM     26  C12  11 d         -13.984 205.281 111.399  0.00  0.00     0.007 A 
ENDBRANCH  20  21
ENDBRANCH  19  20
ENDBRANCH  17  19
ENDBRANCH  14  17
ENDBRANCH   3  14
BRANCH  11  27
ATOM     27  N3   11 d         -15.160 203.403 118.774  0.00  0.00    -0.116 N 
ATOM     28  O1   11 d         -15.782 202.465 118.559  0.00  0.00    -0.532 OA
ATOM     29  O2   11 d         -15.033 203.769 119.975  0.00  0.00    -0.532 OA
ENDBRANCH  11  27
TORSDOF 6
ENDMDL
MODEL 3
REMARK VINA RESULT:      -8.4      1.760      2.787
REMARK  6 active torsions:
REMARK  status: ('A' for Active; 'I' for Inactive)
REMARK    1  A    between atoms: C3_3  and  N1_4 
REMARK    2  A    between atoms: N1_4  and  C4_5 
REMARK    3  A    between atoms: C4_5  and  C5_6 
REMARK    4  A    between atoms: C5_6  and  C6_7 
REMARK    5  A    between atoms: C6_7  and  C7_8 
REMARK    6  A    between atoms: C20_22  and  N3_23 
ROOT
ATOM      1  C1   11 d         -10.064 208.107 116.524  0.00  0.00    -0.019 A 
ATOM      2  C2   11 d         -11.290 207.745 115.971  0.00  0.00     0.073 A 
ATOM      3  C3   11 d         -12.402 207.063 116.740  0.00  0.00     0.238 C 
ATOM      4  C14  11 d         -11.836 206.542 118.095  0.00  0.00     0.040 C 
ATOM      5  C15  11 d         -10.935 207.567 118.818  0.00  0.00     0.007 C 
ATOM      6  C16  11 d          -9.710 207.969 117.977  0.00  0.00     0.042 C 
ATOM      7  N2   11 d         -11.276 207.977 114.636  0.00  0.00    -0.250 NA
ATOM      8  C17  11 d         -10.079 208.535 114.347  0.00  0.00     0.068 A 
ATOM      9  C18  11 d          -9.318 208.642 115.495  0.00  0.00     0.003 A 
ATOM     10  C19  11 d          -8.028 209.184 115.481  0.00  0.00     0.050 A 
ATOM     11  C20  11 d          -7.486 209.634 114.245  0.00  0.00     0.103 A 
ATOM     12  C21  11 d          -8.281 209.508 113.068  0.00  0.00     0.038 A 
ATOM     13  C22  11 d          -9.580 208.960 113.113  0.00  0.00     0.035 A 
ENDROOT
BRANCH   3  14
ATOM     14  N1   11 d         -13.597 207.983 116.885  0.00  0.00    -0.061 N 
ATOM     15  H2   11 d         -14.027 207.882 117.862  0.00  0.00     0.278 HD
ATOM     16  H3   11 d         -13.254 208.999 116.822  0.00  0.00     0.278 HD
BRANCH  14  17
ATOM     17  C4   11 d         -14.681 207.826 115.845  0.00  0.00     0.183 C 
ATOM     18  C13  11 d         -14.702 208.986 114.824  0.00  0.00     0.040 C 
BRANCH  17  19
ATOM     19  C5   11 d         -14.542 206.469 115.100  0.00  0.00     0.037 C 
BRANCH  19  20
ATOM     20  C6   11 d         -15.692 206.174 114.120  0.00  0.00     0.040 C 
BRANCH  20  21
ATOM     21  C7   11 d         -15.228 206.279 112.689  0.00  0.00    -0.058 A 
ATOM     22  C8   11 d         -13.851 206.209 112.383  0.00  0.00     0.007 A 
ATOM     23  C9   11 d         -13.402 206.413 111.069  0.00  0.00     0.001 A 
ATOM     24  C10  11 d         -14.322 206.713 110.053  0.00  0.00     0.000 A 
ATOM     25  C11  11 d         -15.688 206.821 110.352  0.00  0.00     0.001 A 
ATOM     26  C12  11 d         -16.138 206.622 111.668  0.00  0.00     0.007 A 
ENDBRANCH  20  21
ENDBRANCH  19  20
ENDBRANCH  17  19
ENDBRANCH  14  17
ENDBRANCH   3  14
BRANCH  11  27
ATOM     27  N3   11 d          -6.201 210.177 114.183  0.00  0.00    -0.116 N 
ATOM     28  O1   11 d          -5.398 209.697 113.523  0.00  0.00    -0.532 OA
ATOM     29  O2   11 d          -5.849 211.096 114.974  0.00  0.00    -0.532 OA
ENDBRANCH  11  27
TORSDOF 6
ENDMDL
MODEL 4
REMARK VINA RESULT:      -8.3      5.439      7.832
REMARK  6 active torsions:
REMARK  status: ('A' for Active; 'I' for Inactive)
REMARK    1  A    between atoms: C3_3  and  N1_4 
REMARK    2  A    between atoms: N1_4  and  C4_5 
REMARK    3  A    between atoms: C4_5  and  C5_6 
REMARK    4  A    between atoms: C5_6  and  C6_7 
REMARK    5  A    between atoms: C6_7  and  C7_8 
REMARK    6  A    between atoms: C20_22  and  N3_23 
ROOT
ATOM      1  C1   11 d         -13.209 205.679 118.048  0.00  0.00    -0.019 A 
ATOM      2  C2   11 d         -12.864 207.028 118.063  0.00  0.00     0.073 A 
ATOM      3  C3   11 d         -11.766 207.635 117.216  0.00  0.00     0.238 C 
ATOM      4  C14  11 d         -10.894 206.489 116.619  0.00  0.00     0.040 C 
ATOM      5  C15  11 d         -11.727 205.319 116.051  0.00  0.00     0.007 C 
ATOM      6  C16  11 d         -12.615 204.657 117.121  0.00  0.00     0.042 C 
ATOM      7  N2   11 d         -13.565 207.669 119.031  0.00  0.00    -0.250 NA
ATOM      8  C17  11 d         -14.390 206.754 119.588  0.00  0.00     0.068 A 
ATOM      9  C18  11 d         -14.204 205.523 118.990  0.00  0.00     0.003 A 
ATOM     10  C19  11 d         -14.930 204.392 119.381  0.00  0.00     0.050 A 
ATOM     11  C20  11 d         -15.887 204.518 120.425  0.00  0.00     0.103 A 
ATOM     12  C21  11 d         -16.062 205.794 121.037  0.00  0.00     0.038 A 
ATOM     13  C22  11 d         -15.316 206.918 120.622  0.00  0.00     0.035 A 
ENDROOT
BRANCH   3  14
ATOM     14  N1   11 d         -12.345 208.573 116.178  0.00  0.00    -0.061 N 
ATOM     15  H2   11 d         -12.775 209.433 116.652  0.00  0.00     0.278 HD
ATOM     16  H3   11 d         -11.541 208.948 115.572  0.00  0.00     0.278 HD
BRANCH  14  17
ATOM     17  C4   11 d         -13.355 207.969 115.232  0.00  0.00     0.183 C 
ATOM     18  C13  11 d         -14.705 208.722 115.239  0.00  0.00     0.040 C 
BRANCH  17  19
ATOM     19  C5   11 d         -12.792 207.907 113.784  0.00  0.00     0.037 C 
BRANCH  19  20
ATOM     20  C6   11 d         -12.939 206.528 113.116  0.00  0.00     0.040 C 
BRANCH  20  21
ATOM     21  C7   11 d         -14.264 206.407 112.405  0.00  0.00    -0.058 A 
ATOM     22  C8   11 d         -14.442 206.997 111.134  0.00  0.00     0.007 A 
ATOM     23  C9   11 d         -15.701 206.981 110.513  0.00  0.00     0.001 A 
ATOM     24  C10  11 d         -16.798 206.401 111.165  0.00  0.00     0.000 A 
ATOM     25  C11  11 d         -16.641 205.844 112.444  0.00  0.00     0.001 A 
ATOM     26  C12  11 d         -15.383 205.863 113.069  0.00  0.00     0.007 A 
ENDBRANCH  20  21
ENDBRANCH  19  20
ENDBRANCH  17  19
ENDBRANCH  14  17
ENDBRANCH   3  14
BRANCH  11  27
ATOM     27  N3   11 d         -16.632 203.416 120.851  0.00  0.00    -0.116 N 
ATOM     28  O1   11 d         -17.299 203.488 121.779  0.00  0.00    -0.532 OA
ATOM     29  O2   11 d         -16.457 202.279 120.331  0.00  0.00    -0.532 OA
ENDBRANCH  11  27
TORSDOF 6
ENDMDL
MODEL 5
REMARK VINA RESULT:      -8.3      5.057      7.890
REMARK  6 active torsions:
REMARK  status: ('A' for Active; 'I' for Inactive)
REMARK    1  A    between atoms: C3_3  and  N1_4 
REMARK    2  A    between atoms: N1_4  and  C4_5 
REMARK    3  A    between atoms: C4_5  and  C5_6 
REMARK    4  A    between atoms: C5_6  and  C6_7 
REMARK    5  A    between atoms: C6_7  and  C7_8 
REMARK    6  A    between atoms: C20_22  and  N3_23 
ROOT
ATOM      1  C1   11 d         -13.424 206.014 114.643  0.00  0.00    -0.019 A 
ATOM      2  C2   11 d         -14.346 205.605 115.602  0.00  0.00     0.073 A 
ATOM      3  C3   11 d         -13.980 205.184 117.009  0.00  0.00     0.238 C 
ATOM      4  C14  11 d         -12.440 204.958 117.086  0.00  0.00     0.040 C 
ATOM      5  C15  11 d         -11.622 206.070 116.393  0.00  0.00     0.007 C 
ATOM      6  C16  11 d         -11.954 206.196 114.895  0.00  0.00     0.042 C 
ATOM      7  N2   11 d         -15.579 205.520 115.045  0.00  0.00    -0.250 NA
ATOM      8  C17  11 d         -15.458 205.927 113.761  0.00  0.00     0.068 A 
ATOM      9  C18  11 d         -14.144 206.254 113.491  0.00  0.00     0.003 A 
ATOM     10  C19  11 d         -13.736 206.702 112.229  0.00  0.00     0.050 A 
ATOM     11  C20  11 d         -14.707 206.823 111.197  0.00  0.00     0.103 A 
ATOM     12  C21  11 d         -16.058 206.474 111.490  0.00  0.00     0.038 A 
ATOM     13  C22  11 d         -16.441 206.026 112.772  0.00  0.00     0.035 A 
ENDROOT
BRANCH   3  14
ATOM     14  N1   11 d         -14.507 206.179 118.022  0.00  0.00    -0.061 N 
ATOM     15  H2   11 d         -14.043 207.135 117.881  0.00  0.00     0.278 HD
ATOM     16  H3   11 d         -15.553 206.334 117.834  0.00  0.00     0.278 HD
BRANCH  14  17
ATOM     17  C4   11 d         -14.383 205.774 119.472  0.00  0.00     0.183 C 
ATOM     18  C13  11 d         -14.794 206.903 120.445  0.00  0.00     0.040 C 
BRANCH  17  19
ATOM     19  C5   11 d         -15.218 204.496 119.764  0.00  0.00     0.037 C 
BRANCH  19  20
ATOM     20  C6   11 d         -15.994 204.547 121.092  0.00  0.00     0.040 C 
BRANCH  20  21
ATOM     21  C7   11 d         -17.483 204.544 120.853  0.00  0.00    -0.058 A 
ATOM     22  C8   11 d         -18.087 203.475 120.155  0.00  0.00     0.007 A 
ATOM     23  C9   11 d         -19.454 203.516 119.835  0.00  0.00     0.001 A 
ATOM     24  C10  11 d         -20.223 204.635 120.186  0.00  0.00     0.000 A 
ATOM     25  C11  11 d         -19.625 205.719 120.847  0.00  0.00     0.001 A 
ATOM     26  C12  11 d         -18.258 205.681 121.164  0.00  0.00     0.007 A 
ENDBRANCH  20  21
ENDBRANCH  19  20
ENDBRANCH  17  19
ENDBRANCH  14  17
ENDBRANCH   3  14
BRANCH  11  27
ATOM     27  N3   11 d         -14.346 207.263 109.922  0.00  0.00    -0.116 N 
ATOM     28  O1   11 d         -15.144 207.453 109.124  0.00  0.00    -0.532 OA
ATOM     29  O2   11 d         -13.134 207.295 109.569  0.00  0.00    -0.532 OA
ENDBRANCH  11  27
TORSDOF 6
ENDMDL
MODEL 6
REMARK VINA RESULT:      -8.1      4.094      6.275
REMARK  6 active torsions:
REMARK  status: ('A' for Active; 'I' for Inactive)
REMARK    1  A    between atoms: C3_3  and  N1_4 
REMARK    2  A    between atoms: N1_4  and  C4_5 
REMARK    3  A    between atoms: C4_5  and  C5_6 
REMARK    4  A    between atoms: C5_6  and  C6_7 
REMARK    5  A    between atoms: C6_7  and  C7_8 
REMARK    6  A    between atoms: C20_22  and  N3_23 
ROOT
ATOM      1  C1   11 d         -10.417 207.647 117.117  0.00  0.00    -0.019 A 
ATOM      2  C2   11 d         -10.809 208.077 115.852  0.00  0.00     0.073 A 
ATOM      3  C3   11 d          -9.897 208.785 114.873  0.00  0.00     0.238 C 
ATOM      4  C14  11 d          -8.609 209.245 115.622  0.00  0.00     0.040 C 
ATOM      5  C15  11 d          -8.023 208.162 116.554  0.00  0.00     0.007 C 
ATOM      6  C16  11 d          -9.015 207.730 117.650  0.00  0.00     0.042 C 
ATOM      7  N2   11 d         -12.141 207.881 115.695  0.00  0.00    -0.250 NA
ATOM      8  C17  11 d         -12.585 207.280 116.821  0.00  0.00     0.068 A 
ATOM      9  C18  11 d         -11.540 207.108 117.709  0.00  0.00     0.003 A 
ATOM     10  C19  11 d         -11.723 206.512 118.962  0.00  0.00     0.050 A 
ATOM     11  C20  11 d         -13.024 206.072 119.330  0.00  0.00     0.103 A 
ATOM     12  C21  11 d         -14.093 206.264 118.406  0.00  0.00     0.038 A 
ATOM     13  C22  11 d         -13.879 206.867 117.148  0.00  0.00     0.035 A 
ENDROOT
BRANCH   3  14
ATOM     14  N1   11 d          -9.627 207.914 113.664  0.00  0.00    -0.061 N 
ATOM     15  H2   11 d          -8.665 208.140 113.249  0.00  0.00     0.278 HD
ATOM     16  H3   11 d          -9.571 206.891 113.986  0.00  0.00     0.278 HD
BRANCH  14  17
ATOM     17  C4   11 d         -10.666 207.967 112.568  0.00  0.00     0.183 C 
ATOM     18  C13  11 d         -10.062 208.318 111.189  0.00  0.00     0.040 C 
BRANCH  17  19
ATOM     19  C5   11 d         -11.444 206.624 112.477  0.00  0.00     0.037 C 
BRANCH  19  20
ATOM     20  C6   11 d         -12.069 206.357 111.096  0.00  0.00     0.040 C 
BRANCH  20  21
ATOM     21  C7   11 d         -13.575 206.377 111.167  0.00  0.00    -0.058 A 
ATOM     22  C8   11 d         -14.257 205.479 112.017  0.00  0.00     0.007 A 
ATOM     23  C9   11 d         -15.659 205.417 112.010  0.00  0.00     0.001 A 
ATOM     24  C10  11 d         -16.393 206.233 111.136  0.00  0.00     0.000 A 
ATOM     25  C11  11 d         -15.725 207.104 110.261  0.00  0.00     0.001 A 
ATOM     26  C12  11 d         -14.322 207.163 110.264  0.00  0.00     0.007 A 
ENDBRANCH  20  21
ENDBRANCH  19  20
ENDBRANCH  17  19
ENDBRANCH  14  17
ENDBRANCH   3  14
BRANCH  11  27
ATOM     27  N3   11 d         -13.254 205.476 120.571  0.00  0.00    -0.116 N 
ATOM     28  O1   11 d         -12.432 205.456 121.368  0.00  0.00    -0.532 OA
ATOM     29  O2   11 d         -14.300 204.800 120.779  0.00  0.00    -0.532 OA
ENDBRANCH  11  27
TORSDOF 6
ENDMDL
MODEL 7
REMARK VINA RESULT:      -8.0      2.052      3.329
REMARK  6 active torsions:
REMARK  status: ('A' for Active; 'I' for Inactive)
REMARK    1  A    between atoms: C3_3  and  N1_4 
REMARK    2  A    between atoms: N1_4  and  C4_5 
REMARK    3  A    between atoms: C4_5  and  C5_6 
REMARK    4  A    between atoms: C5_6  and  C6_7 
REMARK    5  A    between atoms: C6_7  and  C7_8 
REMARK    6  A    between atoms: C20_22  and  N3_23 
ROOT
ATOM      1  C1   11 d          -6.844 208.769 114.287  0.00  0.00    -0.019 A 
ATOM      2  C2   11 d          -8.179 208.626 114.658  0.00  0.00     0.073 A 
ATOM      3  C3   11 d          -9.337 208.622 113.684  0.00  0.00     0.238 C 
ATOM      4  C14  11 d          -8.837 209.138 112.301  0.00  0.00     0.040 C 
ATOM      5  C15  11 d          -7.486 208.526 111.870  0.00  0.00     0.007 C 
ATOM      6  C16  11 d          -6.356 208.837 112.868  0.00  0.00     0.042 C 
ATOM      7  N2   11 d          -8.280 208.621 116.010  0.00  0.00    -0.250 NA
ATOM      8  C17  11 d          -7.021 208.701 116.498  0.00  0.00     0.068 A 
ATOM      9  C18  11 d          -6.115 208.777 115.458  0.00  0.00     0.003 A 
ATOM     10  C19  11 d          -4.737 208.873 115.682  0.00  0.00     0.050 A 
ATOM     11  C20  11 d          -4.259 208.895 117.021  0.00  0.00     0.103 A 
ATOM     12  C21  11 d          -5.208 208.825 118.083  0.00  0.00     0.038 A 
ATOM     13  C22  11 d          -6.592 208.726 117.828  0.00  0.00     0.035 A 
ENDROOT
BRANCH   3  14
ATOM     14  N1   11 d          -9.992 207.258 113.632  0.00  0.00    -0.061 N 
ATOM     15  H2   11 d          -9.532 206.653 112.875  0.00  0.00     0.278 HD
ATOM     16  H3   11 d          -9.803 206.754 114.561  0.00  0.00     0.278 HD
BRANCH  14  17
ATOM     17  C4   11 d         -11.489 207.251 113.433  0.00  0.00     0.183 C 
ATOM     18  C13  11 d         -12.214 208.288 114.320  0.00  0.00     0.040 C 
BRANCH  17  19
ATOM     19  C5   11 d         -11.851 207.488 111.939  0.00  0.00     0.037 C 
BRANCH  19  20
ATOM     20  C6   11 d         -12.364 206.231 111.215  0.00  0.00     0.040 C 
BRANCH  20  21
ATOM     21  C7   11 d         -13.872 206.195 111.189  0.00  0.00    -0.058 A 
ATOM     22  C8   11 d         -14.588 207.075 110.349  0.00  0.00     0.007 A 
ATOM     23  C9   11 d         -15.990 207.122 110.397  0.00  0.00     0.001 A 
ATOM     24  C10  11 d         -16.688 206.311 111.303  0.00  0.00     0.000 A 
ATOM     25  C11  11 d         -15.985 205.460 112.169  0.00  0.00     0.001 A 
ATOM     26  C12  11 d         -14.582 205.414 112.125  0.00  0.00     0.007 A 
ENDBRANCH  20  21
ENDBRANCH  19  20
ENDBRANCH  17  19
ENDBRANCH  14  17
ENDBRANCH   3  14
BRANCH  11  27
ATOM     27  N3   11 d          -2.893 208.995 117.292  0.00  0.00    -0.116 N 
ATOM     28  O1   11 d          -2.120 208.689 116.505  0.00  0.00    -0.532 OA
ATOM     29  O2   11 d          -2.483 209.257 118.457  0.00  0.00    -0.532 OA
ENDBRANCH  11  27
TORSDOF 6
ENDMDL
MODEL 8
REMARK VINA RESULT:      -7.8      3.755      7.692
REMARK  6 active torsions:
REMARK  status: ('A' for Active; 'I' for Inactive)
REMARK    1  A    between atoms: C3_3  and  N1_4 
REMARK    2  A    between atoms: N1_4  and  C4_5 
REMARK    3  A    between atoms: C4_5  and  C5_6 
REMARK    4  A    between atoms: C5_6  and  C6_7 
REMARK    5  A    between atoms: C6_7  and  C7_8 
REMARK    6  A    between atoms: C20_22  and  N3_23 
ROOT
ATOM      1  C1   11 d         -12.279 206.719 115.609  0.00  0.00    -0.019 A 
ATOM      2  C2   11 d         -11.134 207.511 115.637  0.00  0.00     0.073 A 
ATOM      3  C3   11 d         -10.486 208.026 116.905  0.00  0.00     0.238 C 
ATOM      4  C14  11 d         -11.472 207.826 118.095  0.00  0.00     0.040 C 
ATOM      5  C15  11 d         -12.150 206.438 118.103  0.00  0.00     0.007 C 
ATOM      6  C16  11 d         -12.973 206.179 116.827  0.00  0.00     0.042 C 
ATOM      7  N2   11 d         -10.779 207.846 114.373  0.00  0.00    -0.250 NA
ATOM      8  C17  11 d         -11.650 207.228 113.543  0.00  0.00     0.068 A 
ATOM      9  C18  11 d         -12.576 206.513 114.278  0.00  0.00     0.003 A 
ATOM     10  C19  11 d         -13.600 205.780 113.668  0.00  0.00     0.050 A 
ATOM     11  C20  11 d         -13.688 205.775 112.248  0.00  0.00     0.103 A 
ATOM     12  C21  11 d         -12.729 206.525 111.505  0.00  0.00     0.038 A 
ATOM     13  C22  11 d         -11.706 207.253 112.147  0.00  0.00     0.035 A 
ENDROOT
BRANCH   3  14
ATOM     14  N1   11 d          -9.130 207.384 117.114  0.00  0.00    -0.061 N 
ATOM     15  H2   11 d          -9.218 206.529 117.754  0.00  0.00     0.278 HD
ATOM     16  H3   11 d          -8.783 207.006 116.170  0.00  0.00     0.278 HD
BRANCH  14  17
ATOM     17  C4   11 d          -8.044 208.292 117.642  0.00  0.00     0.183 C 
ATOM     18  C13  11 d          -7.769 208.080 119.147  0.00  0.00     0.040 C 
BRANCH  17  19
ATOM     19  C5   11 d          -6.729 208.112 116.833  0.00  0.00     0.037 C 
BRANCH  19  20
ATOM     20  C6   11 d          -6.319 209.355 116.024  0.00  0.00     0.040 C 
BRANCH  20  21
ATOM     21  C7   11 d          -6.457 209.109 114.542  0.00  0.00    -0.058 A 
ATOM     22  C8   11 d          -7.727 209.171 113.928  0.00  0.00     0.007 A 
ATOM     23  C9   11 d          -7.879 208.840 112.572  0.00  0.00     0.001 A 
ATOM     24  C10  11 d          -6.770 208.418 111.825  0.00  0.00     0.000 A 
ATOM     25  C11  11 d          -5.510 208.318 112.434  0.00  0.00     0.001 A 
ATOM     26  C12  11 d          -5.357 208.645 113.791  0.00  0.00     0.007 A 
ENDBRANCH  20  21
ENDBRANCH  19  20
ENDBRANCH  17  19
ENDBRANCH  14  17
ENDBRANCH   3  14
BRANCH  11  27
ATOM     27  N3   11 d         -14.695 205.061 111.596  0.00  0.00    -0.116 N 
ATOM     28  O1   11 d         -14.436 204.311 110.771  0.00  0.00    -0.532 OA
ATOM     29  O2   11 d         -15.911 205.348 111.778  0.00  0.00    -0.532 OA
ENDBRANCH  11  27
TORSDOF 6
ENDMDL
MODEL 9
REMARK VINA RESULT:      -7.7      2.590      3.854
REMARK  6 active torsions:
REMARK  status: ('A' for Active; 'I' for Inactive)
REMARK    1  A    between atoms: C3_3  and  N1_4 
REMARK    2  A    between atoms: N1_4  and  C4_5 
REMARK    3  A    between atoms: C4_5  and  C5_6 
REMARK    4  A    between atoms: C5_6  and  C6_7 
REMARK    5  A    between atoms: C6_7  and  C7_8 
REMARK    6  A    between atoms: C20_22  and  N3_23 
ROOT
ATOM      1  C1   11 d          -7.407 209.018 115.368  0.00  0.00    -0.019 A 
ATOM      2  C2   11 d          -8.744 208.627 115.340  0.00  0.00     0.073 A 
ATOM      3  C3   11 d          -9.628 208.707 114.115  0.00  0.00     0.238 C 
ATOM      4  C14  11 d          -8.925 209.590 113.039  0.00  0.00     0.040 C 
ATOM      5  C15  11 d          -7.424 209.269 112.868  0.00  0.00     0.007 C 
ATOM      6  C16  11 d          -6.627 209.476 114.169  0.00  0.00     0.042 C 
ATOM      7  N2   11 d          -9.149 208.294 116.590  0.00  0.00    -0.250 NA
ATOM      8  C17  11 d          -8.071 208.414 117.398  0.00  0.00     0.068 A 
ATOM      9  C18  11 d          -6.980 208.842 116.668  0.00  0.00     0.003 A 
ATOM     10  C19  11 d          -5.729 209.055 117.260  0.00  0.00     0.050 A 
ATOM     11  C20  11 d          -5.582 208.822 118.655  0.00  0.00     0.103 A 
ATOM     12  C21  11 d          -6.721 208.388 119.396  0.00  0.00     0.038 A 
ATOM     13  C22  11 d          -7.969 208.181 118.772  0.00  0.00     0.035 A 
ENDROOT
BRANCH   3  14
ATOM     14  N1   11 d          -9.999 207.322 113.627  0.00  0.00    -0.061 N 
ATOM     15  H2   11 d          -9.389 207.047 112.790  0.00  0.00     0.278 HD
ATOM     16  H3   11 d          -9.766 206.615 114.401  0.00  0.00     0.278 HD
BRANCH  14  17
ATOM     17  C4   11 d         -11.453 207.113 113.274  0.00  0.00     0.183 C 
ATOM     18  C13  11 d         -12.400 208.037 114.073  0.00  0.00     0.040 C 
BRANCH  17  19
ATOM     19  C5   11 d         -11.686 207.309 111.749  0.00  0.00     0.037 C 
BRANCH  19  20
ATOM     20  C6   11 d         -12.274 206.073 111.045  0.00  0.00     0.040 C 
BRANCH  20  21
ATOM     21  C7   11 d         -13.782 206.108 111.054  0.00  0.00    -0.058 A 
ATOM     22  C8   11 d         -14.471 207.151 110.397  0.00  0.00     0.007 A 
ATOM     23  C9   11 d         -15.868 207.251 110.490  0.00  0.00     0.001 A 
ATOM     24  C10  11 d         -16.587 206.326 111.261  0.00  0.00     0.000 A 
ATOM     25  C11  11 d         -15.910 205.307 111.948  0.00  0.00     0.001 A 
ATOM     26  C12  11 d         -14.511 205.209 111.859  0.00  0.00     0.007 A 
ENDBRANCH  20  21
ENDBRANCH  19  20
ENDBRANCH  17  19
ENDBRANCH  14  17
ENDBRANCH   3  14
BRANCH  11  27
ATOM     27  N3   11 d          -4.355 209.025 119.289  0.00  0.00    -0.116 N 
ATOM     28  O1   11 d          -3.381 209.012 118.689  0.00  0.00    -0.532 OA
ATOM     29  O2   11 d          -4.277 209.055 120.549  0.00  0.00    -0.532 OA
ENDBRANCH  11  27
TORSDOF 6
ENDMDL
MODEL 10
REMARK VINA RESULT:      -7.5      5.383      7.944
REMARK  6 active torsions:
REMARK  status: ('A' for Active; 'I' for Inactive)
REMARK    1  A    between atoms: C3_3  and  N1_4 
REMARK    2  A    between atoms: N1_4  and  C4_5 
REMARK    3  A    between atoms: C4_5  and  C5_6 
REMARK    4  A    between atoms: C5_6  and  C6_7 
REMARK    5  A    between atoms: C6_7  and  C7_8 
REMARK    6  A    between atoms: C20_22  and  N3_23 
ROOT
ATOM      1  C1   11 d         -13.208 205.807 117.938  0.00  0.00    -0.019 A 
ATOM      2  C2   11 d         -12.926 207.160 117.766  0.00  0.00     0.073 A 
ATOM      3  C3   11 d         -11.926 207.700 116.766  0.00  0.00     0.238 C 
ATOM      4  C14  11 d         -11.051 206.524 116.239  0.00  0.00     0.040 C 
ATOM      5  C15  11 d         -11.868 205.263 115.883  0.00  0.00     0.007 C 
ATOM      6  C16  11 d         -12.641 204.703 117.092  0.00  0.00     0.042 C 
ATOM      7  N2   11 d         -13.580 207.887 118.705  0.00  0.00    -0.250 NA
ATOM      8  C17  11 d         -14.317 207.017 119.432  0.00  0.00     0.068 A 
ATOM      9  C18  11 d         -14.120 205.730 118.971  0.00  0.00     0.003 A 
ATOM     10  C19  11 d         -14.760 204.628 119.550  0.00  0.00     0.050 A 
ATOM     11  C20  11 d         -15.639 204.844 120.647  0.00  0.00     0.103 A 
ATOM     12  C21  11 d         -15.825 206.178 121.117  0.00  0.00     0.038 A 
ATOM     13  C22  11 d         -15.167 207.270 120.512  0.00  0.00     0.035 A 
ENDROOT
BRANCH   3  14
ATOM     14  N1   11 d         -12.626 208.484 115.675  0.00  0.00    -0.061 N 
ATOM     15  H2   11 d         -12.745 209.507 115.970  0.00  0.00     0.278 HD
ATOM     16  H3   11 d         -11.992 208.503 114.809  0.00  0.00     0.278 HD
BRANCH  14  17
ATOM     17  C4   11 d         -13.960 207.938 115.223  0.00  0.00     0.183 C 
ATOM     18  C13  11 d         -15.142 208.860 115.600  0.00  0.00     0.040 C 
BRANCH  17  19
ATOM     19  C5   11 d         -13.962 207.677 113.690  0.00  0.00     0.037 C 
BRANCH  19  20
ATOM     20  C6   11 d         -12.901 206.662 113.230  0.00  0.00     0.040 C 
BRANCH  20  21
ATOM     21  C7   11 d         -11.948 207.282 112.238  0.00  0.00    -0.058 A 
ATOM     22  C8   11 d         -12.108 207.042 110.856  0.00  0.00     0.007 A 
ATOM     23  C9   11 d         -11.165 207.527 109.936  0.00  0.00     0.001 A 
ATOM     24  C10  11 d         -10.042 208.233 110.389  0.00  0.00     0.000 A 
ATOM     25  C11  11 d          -9.854 208.447 111.763  0.00  0.00     0.001 A 
ATOM     26  C12  11 d         -10.794 207.958 112.685  0.00  0.00     0.007 A 
ENDBRANCH  20  21
ENDBRANCH  19  20
ENDBRANCH  17  19
ENDBRANCH  14  17
ENDBRANCH   3  14
BRANCH  11  27
ATOM     27  N3   11 d         -16.296 203.775 121.259  0.00  0.00    -0.116 N 
ATOM     28  O1   11 d         -17.413 203.842 121.502  0.00  0.00    -0.532 OA
ATOM     29  O2   11 d         -15.647 202.791 121.710  0.00  0.00    -0.532 OA
ENDBRANCH  11  27
TORSDOF 6
ENDMDL
